version 2
run General-0-20220830-15:51:46-5112
attr configname General
attr datetime 20220830-15:51:46
attr experiment General
attr inifile omnetpp.ini
attr iterationvars ""
attr iterationvarsf ""
attr measurement ""
attr network CanvasWorld
attr processid 5112
attr repetition 0
attr replication #0
attr resultdir results
attr runnumber 0
attr seedset 0
param *.traci.core.version -1
param *.traci.launcher.typename "\"PosixLauncher\""
param *.traci.launcher.sumocfg "\"politecnico.sumo.cfg\""
param *.traci.launcher.sumo "\"sumo-gui\""
param *.node[*].wlan[*].typename "\"VanetNic\""
param *.node[*].wlan[*].radio.channelNumber 180
param *.node[*].wlan[*].radio.carrierFrequency "5.9 GHz"
param *.node[*].wlan[*].radio.transmitter.power "200 mW"
param *.node[*].middleware.updateInterval 0.1s
param *.node[*].middleware.datetime "\"2022-08-16 15:00:00\""
param *.node[*].middleware.services "xmldoc(\"services.xml\")"
param *.node[*].middleware.DEN.useCases "xmldoc(\"den-use-cases.xml\")"
param **.speedThreshold "2.0 mps"
param *.withStoryboard true
param *.storyboard.python "\"story\""
param *.storyboard.canvas "\"CanvasWorld\""

vector 0 CanvasWorld.node[0].wlan[0].radio radioMode:vector ETV
attr interpolationmode sample-hold
attr source radioModeChanged
attr title "Radio mode, vector"
vector 1 CanvasWorld.node[0].wlan[0].radio radioChannel:vector ETV
attr interpolationmode sample-hold
attr source radioChannelChanged
attr title "Radio channel, vector"
vector 2 CanvasWorld.node[0].wlan[0].radio receptionState:vector ETV
attr interpolationmode sample-hold
attr source receptionStateChanged
attr title "Radio reception state, vector"
vector 3 CanvasWorld.node[0].wlan[0].mac.dcf.channelAccess.contention state:vector ETV
attr interpolationmode none
attr source stateChanged
attr title "contention state, vector"
vector 4 CanvasWorld.node[0].wlan[0].mac.hcf.edca.edcaf[0].contention state:vector ETV
attr interpolationmode none
attr source stateChanged
attr title "contention state, vector"
vector 5 CanvasWorld.node[0].wlan[0].mac.hcf.edca.edcaf[1].contention state:vector ETV
attr interpolationmode none
attr source stateChanged
attr title "contention state, vector"
vector 6 CanvasWorld.node[0].wlan[0].mac.hcf.edca.edcaf[2].contention state:vector ETV
attr interpolationmode none
attr source stateChanged
attr title "contention state, vector"
vector 7 CanvasWorld.node[0].wlan[0].mac.hcf.edca.edcaf[3].contention state:vector ETV
attr interpolationmode none
attr source stateChanged
attr title "contention state, vector"
vector 8 CanvasWorld.node[0].middleware.CA transmission:vector(camStationId) ETV
attr source CamSent
vector 9 CanvasWorld.node[0].middleware.CA transmission:vector(camGenerationDeltaTime) ETV
attr source CamSent
vector 10 CanvasWorld.node[0].wlan[0].mac rcvdPkFromHL:vector(packetBytes) ETV
attr interpolationmode none
attr source packetReceivedFromUpper
attr title "packets received from higher layer, vector(packetBytes)"
vector 11 CanvasWorld.node[0].wlan[0].mac sentDownPk:vector(packetBytes) ETV
attr interpolationmode none
attr source packetSentToLower
attr title "packets sent to lower layer, vector(packetBytes)"
vector 12 CanvasWorld.node[0].wlan[0].radio transmissionState:vector ETV
attr interpolationmode sample-hold
attr source transmissionStateChanged
attr title "Radio transmission state, vector"
vector 13 CanvasWorld.node[1].wlan[0].radio radioMode:vector ETV
attr interpolationmode sample-hold
attr source radioModeChanged
attr title "Radio mode, vector"
vector 14 CanvasWorld.node[1].wlan[0].radio radioChannel:vector ETV
attr interpolationmode sample-hold
attr source radioChannelChanged
attr title "Radio channel, vector"
vector 15 CanvasWorld.node[1].wlan[0].radio receptionState:vector ETV
attr interpolationmode sample-hold
attr source receptionStateChanged
attr title "Radio reception state, vector"
vector 16 CanvasWorld.node[1].wlan[0].mac.dcf.channelAccess.contention state:vector ETV
attr interpolationmode none
attr source stateChanged
attr title "contention state, vector"
vector 17 CanvasWorld.node[1].wlan[0].mac.hcf.edca.edcaf[0].contention state:vector ETV
attr interpolationmode none
attr source stateChanged
attr title "contention state, vector"
vector 18 CanvasWorld.node[1].wlan[0].mac.hcf.edca.edcaf[1].contention state:vector ETV
attr interpolationmode none
attr source stateChanged
attr title "contention state, vector"
vector 19 CanvasWorld.node[1].wlan[0].mac.hcf.edca.edcaf[2].contention state:vector ETV
attr interpolationmode none
attr source stateChanged
attr title "contention state, vector"
vector 20 CanvasWorld.node[1].wlan[0].mac.hcf.edca.edcaf[3].contention state:vector ETV
attr interpolationmode none
attr source stateChanged
attr title "contention state, vector"
vector 21 CanvasWorld.node[1].wlan[0].mac rcvdPkFromLL:vector(packetBytes) ETV
attr interpolationmode none
attr source packetReceivedFromLower
attr title "packets received from lower layer, vector(packetBytes)"
vector 22 CanvasWorld.node[1].wlan[0].mac passedUpPk:vector(packetBytes) ETV
attr interpolationmode none
attr source packetSentToUpper
attr title "packets passed to higher layer, vector(packetBytes)"
vector 23 CanvasWorld.node[1].middleware.CA reception:vector(camStationId) ETV
attr source CamReceived
vector 24 CanvasWorld.node[1].middleware.CA reception:vector(camGenerationDeltaTime) ETV
attr source CamReceived
vector 25 CanvasWorld.node[1].middleware.CA transmission:vector(camStationId) ETV
attr source CamSent
vector 26 CanvasWorld.node[1].middleware.CA transmission:vector(camGenerationDeltaTime) ETV
attr source CamSent
vector 27 CanvasWorld.node[1].wlan[0].mac rcvdPkFromHL:vector(packetBytes) ETV
attr interpolationmode none
attr source packetReceivedFromUpper
attr title "packets received from higher layer, vector(packetBytes)"
vector 28 CanvasWorld.node[1].wlan[0].mac sentDownPk:vector(packetBytes) ETV
attr interpolationmode none
attr source packetSentToLower
attr title "packets sent to lower layer, vector(packetBytes)"
vector 29 CanvasWorld.node[1].wlan[0].radio transmissionState:vector ETV
attr interpolationmode sample-hold
attr source transmissionStateChanged
attr title "Radio transmission state, vector"
vector 30 CanvasWorld.node[0].wlan[0].mac rcvdPkFromLL:vector(packetBytes) ETV
attr interpolationmode none
attr source packetReceivedFromLower
attr title "packets received from lower layer, vector(packetBytes)"
vector 31 CanvasWorld.node[0].wlan[0].mac passedUpPk:vector(packetBytes) ETV
attr interpolationmode none
attr source packetSentToUpper
attr title "packets passed to higher layer, vector(packetBytes)"
vector 32 CanvasWorld.node[0].middleware.CA reception:vector(camStationId) ETV
attr source CamReceived
vector 33 CanvasWorld.node[0].middleware.CA reception:vector(camGenerationDeltaTime) ETV
attr source CamReceived
vector 34 CanvasWorld.node[2].wlan[0].radio radioMode:vector ETV
attr interpolationmode sample-hold
attr source radioModeChanged
attr title "Radio mode, vector"
vector 35 CanvasWorld.node[2].wlan[0].radio radioChannel:vector ETV
attr interpolationmode sample-hold
attr source radioChannelChanged
attr title "Radio channel, vector"
vector 36 CanvasWorld.node[2].wlan[0].radio receptionState:vector ETV
attr interpolationmode sample-hold
attr source receptionStateChanged
attr title "Radio reception state, vector"
vector 37 CanvasWorld.node[2].wlan[0].mac.dcf.channelAccess.contention state:vector ETV
attr interpolationmode none
attr source stateChanged
attr title "contention state, vector"
vector 38 CanvasWorld.node[2].wlan[0].mac.hcf.edca.edcaf[0].contention state:vector ETV
attr interpolationmode none
attr source stateChanged
attr title "contention state, vector"
vector 39 CanvasWorld.node[2].wlan[0].mac.hcf.edca.edcaf[1].contention state:vector ETV
attr interpolationmode none
attr source stateChanged
attr title "contention state, vector"
vector 40 CanvasWorld.node[2].wlan[0].mac.hcf.edca.edcaf[2].contention state:vector ETV
attr interpolationmode none
attr source stateChanged
attr title "contention state, vector"
vector 41 CanvasWorld.node[2].wlan[0].mac.hcf.edca.edcaf[3].contention state:vector ETV
attr interpolationmode none
attr source stateChanged
attr title "contention state, vector"
vector 42 CanvasWorld.node[2].middleware.CA transmission:vector(camStationId) ETV
attr source CamSent
vector 43 CanvasWorld.node[2].middleware.CA transmission:vector(camGenerationDeltaTime) ETV
attr source CamSent
vector 44 CanvasWorld.node[2].wlan[0].mac rcvdPkFromHL:vector(packetBytes) ETV
attr interpolationmode none
attr source packetReceivedFromUpper
attr title "packets received from higher layer, vector(packetBytes)"
vector 45 CanvasWorld.node[2].wlan[0].mac sentDownPk:vector(packetBytes) ETV
attr interpolationmode none
attr source packetSentToLower
attr title "packets sent to lower layer, vector(packetBytes)"
vector 46 CanvasWorld.node[2].wlan[0].radio transmissionState:vector ETV
attr interpolationmode sample-hold
attr source transmissionStateChanged
attr title "Radio transmission state, vector"
vector 47 CanvasWorld.node[2].wlan[0].mac rcvdPkFromLL:vector(packetBytes) ETV
attr interpolationmode none
attr source packetReceivedFromLower
attr title "packets received from lower layer, vector(packetBytes)"
vector 48 CanvasWorld.node[2].wlan[0].mac passedUpPk:vector(packetBytes) ETV
attr interpolationmode none
attr source packetSentToUpper
attr title "packets passed to higher layer, vector(packetBytes)"
vector 49 CanvasWorld.node[2].middleware.CA reception:vector(camStationId) ETV
attr source CamReceived
vector 50 CanvasWorld.node[2].middleware.CA reception:vector(camGenerationDeltaTime) ETV
attr source CamReceived
vector 51 CanvasWorld.node[3].wlan[0].radio radioMode:vector ETV
attr interpolationmode sample-hold
attr source radioModeChanged
attr title "Radio mode, vector"
vector 52 CanvasWorld.node[3].wlan[0].radio radioChannel:vector ETV
attr interpolationmode sample-hold
attr source radioChannelChanged
attr title "Radio channel, vector"
vector 53 CanvasWorld.node[3].wlan[0].radio receptionState:vector ETV
attr interpolationmode sample-hold
attr source receptionStateChanged
attr title "Radio reception state, vector"
vector 54 CanvasWorld.node[3].wlan[0].mac.dcf.channelAccess.contention state:vector ETV
attr interpolationmode none
attr source stateChanged
attr title "contention state, vector"
vector 55 CanvasWorld.node[3].wlan[0].mac.hcf.edca.edcaf[0].contention state:vector ETV
attr interpolationmode none
attr source stateChanged
attr title "contention state, vector"
vector 56 CanvasWorld.node[3].wlan[0].mac.hcf.edca.edcaf[1].contention state:vector ETV
attr interpolationmode none
attr source stateChanged
attr title "contention state, vector"
vector 57 CanvasWorld.node[3].wlan[0].mac.hcf.edca.edcaf[2].contention state:vector ETV
attr interpolationmode none
attr source stateChanged
attr title "contention state, vector"
vector 58 CanvasWorld.node[3].wlan[0].mac.hcf.edca.edcaf[3].contention state:vector ETV
attr interpolationmode none
attr source stateChanged
attr title "contention state, vector"
vector 59 CanvasWorld.node[3].wlan[0].mac rcvdPkFromLL:vector(packetBytes) ETV
attr interpolationmode none
attr source packetReceivedFromLower
attr title "packets received from lower layer, vector(packetBytes)"
vector 60 CanvasWorld.node[3].wlan[0].mac passedUpPk:vector(packetBytes) ETV
attr interpolationmode none
attr source packetSentToUpper
attr title "packets passed to higher layer, vector(packetBytes)"
vector 61 CanvasWorld.node[3].middleware.CA reception:vector(camStationId) ETV
attr source CamReceived
vector 62 CanvasWorld.node[3].middleware.CA reception:vector(camGenerationDeltaTime) ETV
attr source CamReceived
vector 63 CanvasWorld.node[3].middleware.CA transmission:vector(camStationId) ETV
attr source CamSent
vector 64 CanvasWorld.node[3].middleware.CA transmission:vector(camGenerationDeltaTime) ETV
attr source CamSent
vector 65 CanvasWorld.node[3].wlan[0].mac rcvdPkFromHL:vector(packetBytes) ETV
attr interpolationmode none
attr source packetReceivedFromUpper
attr title "packets received from higher layer, vector(packetBytes)"
vector 66 CanvasWorld.node[3].wlan[0].mac sentDownPk:vector(packetBytes) ETV
attr interpolationmode none
attr source packetSentToLower
attr title "packets sent to lower layer, vector(packetBytes)"
vector 67 CanvasWorld.node[3].wlan[0].radio transmissionState:vector ETV
attr interpolationmode sample-hold
attr source transmissionStateChanged
attr title "Radio transmission state, vector"
30	92	0.942845508031	323
30	119	1.142573510304	123
30	163	1.342573512506	123
30	190	1.542845514621	323
30	247	1.838824216076	323
30	284	2.038552220181	123
30	307	2.042845519005	323
30	367	2.238552223617	123
30	427	2.438824226363	323
30	450	2.442573521054	123
30	511	2.642845521748	323
30	571	2.842573522212	123
30	631	3.04257352244	123
30	690	3.138824231514	323
30	723	3.242845522609	323
30	787	3.278295781579	323
30	828	3.44257352326	123
30	892	3.478023784368	123
30	933	3.642573523599	123
30	997	3.678023787196	123
30	1042	3.838824234846	323
30	1066	3.842845523533	323
30	1131	3.878295789519	323
30	1337	4.538824234036	323
30	1361	4.542845521485	323
30	1502	4.778295794218	323
30	1643	5.142845517212	323
30	1719	5.238824224327	323
30	1931	5.678295783523	323
30	1958	5.742845517487	323
30	2014	5.938824216362	323
30	2033	5.942573519489	123
30	2110	6.142573522497	123
30	2162	6.342845525005	323
30	2200	6.442573525684	123
30	2267	6.542573526425	123
30	2303	6.578295775636	323
30	2338	6.638824219327	323
30	2362	6.642573527236	123
30	2401	6.742573528101	123
30	2439	6.842845528523	323
30	2506	6.942573528977	123
30	2544	7.042573529453	123
30	2582	7.142573529946	123
30	2624	7.238824230561	323
30	2648	7.242573530469	123
30	2716	7.342845531014	323
30	2754	7.442573531546	123
30	2790	7.478295777161	323
30	2821	7.542573536662	123
30	2859	7.642573537639	123
30	2939	7.838824246458	323
30	2986	8.038552251243	123
30	3010	8.042845539741	323
30	3062	8.238552256378	123
30	3132	8.378295789735	323
30	3167	8.438824260359	323
30	3191	8.442573541852	123
30	3234	8.538552261695	123
30	3272	8.638552263059	123
30	3310	8.738552264446	123
30	3377	8.838552265856	123
30	3401	8.842845543991	323
30	3444	8.9388242668	323
30	3482	9.03855226769	123
30	3520	9.138552268576	123
30	3552	9.178295809908	323
30	3587	9.238552269459	123
30	3611	9.242573546107	123
30	3683	9.338552270342	123
30	3721	9.438824271219	323
30	3759	9.538552272088	123
30	3797	9.63855227703	123
30	3864	9.738552278846	123
30	3888	9.742845548671	323
30	3931	9.838552279707	123
30	3963	9.8782958329	323
30	4054	10.23882428323	323
30	4078	10.24284555137	323
30	4171	10.578295858633	323
30	4206	10.638552286813	123
30	4240	10.742845554089	323
30	4329	11.038824290358	323
30	4361	11.078295878	323
30	4401	11.242845556744	323
30	4465	11.278023884619	123
30	4510	11.438552293832	123
30	4542	11.478023891382	123
30	4617	11.678295896859	323
30	4649	11.742845559405	323
30	4685	11.77802389884	123
30	4723	11.878023900835	123
30	4758	11.938824298095	323
30	4790	11.978023902828	123
30	4856	12.078023904818	123
30	4888	12.142573561391	123
30	4924	12.178295906232	323
30	4962	12.27802390763	123
30	5000	12.378023909013	123
30	5035	12.438824301979	323
30	5095	12.478023910381	123
30	5127	12.54284556318	323
30	5163	12.578023911721	123
30	5201	12.678295913051	323
30	5239	12.778023914345	123
30	5305	12.878023920658	123
30	5341	12.938824305301	323
30	5365	12.942573564953	123
30	5402	12.978023921909	123
30	5489	13.342845566786	323
30	5525	13.378295926701	323
30	5560	13.438824308138	323
30	5641	13.742573568577	123
30	5677	13.778023931141	123
30	5712	13.838552310021	123
30	5793	14.142845570373	323
30	5829	14.178295935283	323
30	5864	14.238824311632	323
30	5945	14.542573572145	123
30	5981	14.578023939093	123
30	6016	14.638552312926	123
30	6097	14.942845573936	323
30	6139	15.038824313916	323
30	6171	15.078295943361	323
30	6249	15.342573575718	123
30	6291	15.438552314893	123
30	6332	15.578295947145	323
30	6401	15.742845577516	323
30	6443	15.838824315913	323
30	6521	16.078295950404	323
30	6553	16.142573579302	123
30	6595	16.238552316996	123
30	6676	16.542845581086	323
30	6712	16.578295953109	323
30	6747	16.638824318181	323
30	6828	16.942573582892	123
30	6864	16.978023954904	123
30	6899	17.038552319453	123
30	6980	17.34284558468	323
30	7016	17.378295956369	323
30	7051	17.438824320789	323
30	7132	17.742573586464	123
30	7168	17.778023957562	123
30	7203	17.838552322152	123
30	7284	18.142845588237	323
30	7320	18.178295958454	323
30	7355	18.238824323547	323
30	7436	18.542573590023	123
30	7472	18.578023959069	123
30	7507	18.638552325004	123
30	7588	18.942845591825	323
30	7624	18.978295959332	323
30	7659	19.038824326522	323
30	7740	19.342573593613	123
30	7776	19.37802395928	123
30	7811	19.438552328038	123
30	7892	19.742845595415	323
30	7928	19.778295958966	323
30	7963	19.838824329621	323
30	8044	20.142573597197	123
30	8080	20.178023958631	123
30	8115	20.238552331216	123
30	8196	20.542845598978	323
30	8232	20.578295958287	323
30	8267	20.638824332821	323
30	8348	20.942573600785	123
30	8384	20.978023957976	123
30	8419	21.038552334473	123
30	8500	21.342845602554	323
30	8536	21.378295957634	323
30	8571	21.438824336098	323
30	8652	21.742573604347	123
30	8688	21.778023957296	123
30	8723	21.838552337756	123
30	8804	22.142845606121	323
30	8840	22.178295956952	323
30	8875	22.23882433945	323
30	8956	22.542573607901	123
30	8992	22.578023956626	123
30	9027	22.638552341146	123
30	9108	22.942845609688	323
30	9144	22.978295956287	323
30	9179	23.038824342672	323
30	9260	23.34257360996	123
30	9324	23.378023954445	123
30	9360	23.438552342284	123
30	9441	23.742845607842	323
30	9505	23.778295950218	323
30	9541	23.838824339478	323
30	9622	24.142573603436	123
30	9686	24.178023943691	123
30	9722	24.238552334687	123
30	9803	24.542845597971	323
30	9867	24.578295936086	323
30	9903	24.638824328698	323
30	10042	24.942573589531	123
30	10106	24.978023925283	123
30	10142	25.038552318749	123
30	10281	25.342845577803	323
30	10345	25.378295910679	323
30	10381	25.438824306185	323
30	10520	25.742573565273	123
30	10584	25.778023895189	123
30	10620	25.838552293032	123
30	10701	26.142845553462	323
30	10765	26.178295880016	323
30	10801	26.238824280226	323
30	10844	26.44257354583	123
30	10918	26.578023865483	123
30	10953	26.638552268499	123
30	10987	26.742845539493	323
30	11070	26.978295851901	323
30	11105	27.038824257992	323
30	11124	27.042573534544	123
30	11210	27.342845531068	323
30	11251	27.378023839274	123
30	11286	27.438552248797	123
30	11324	27.642573529097	123
30	11374	27.778295827624	323
30	11409	27.83882424094	323
30	11438	27.942845528588	323
30	11523	28.138552236118	123
30	11555	28.178023817014	123
30	11581	28.242573528905	123
30	11637	28.438824232122	323
30	11666	28.542845529303	323
30	11707	28.578295807573	323
30	11751	28.738552228829	123
30	11770	28.742573529039	123
30	11809	28.842573528828	123
30	11847	28.942573528255	123
30	11888	28.978023799056	123
30	11923	29.038824226371	323
30	11942	29.04284552773	323
30	12010	29.142573527249	123
30	12053	29.242573526654	123
30	12091	29.342573526023	123
30	12127	29.378295791654	323
30	12158	29.442573525412	123
30	12196	29.542845524831	323
30	12238	29.638824223914	323
30	12262	29.642573524286	123
30	12301	29.742573523759	123
30	12339	29.842573523261	123
30	12375	29.878295783989	323
30	12406	29.942573522784	123
30	12448	30.038552224031	123
30	12472	30.04284552232	323
30	12540	30.142573521884	123
30	12576	30.178023780324	123
30	12611	30.238824224703	323
30	12645	30.342573521087	123
30	12681	30.378295778423	323
30	12716	30.438552225741	123
30	12750	30.542845520371	323
30	12786	30.57802377696	123
30	12821	30.638552227076	123
30	12855	30.742573519734	123
30	12891	30.7780237759	123
30	12926	30.838824228633	323
30	12955	30.942573519153	123
30	12996	30.9782957752	323
30	13031	31.038552230386	123
30	13101	31.178023774855	123
30	13136	31.238552232287	123
30	13177	31.378023774807	123
30	13212	31.438824234199	323
30	13259	31.638552236119	123
30	13291	31.67829577524	323
30	13335	31.838552238039	123
30	13364	31.942845517141	323
30	13405	31.978023776175	123
30	13490	32.278295777523	323
30	13546	32.578023779181	123
30	13599	32.838824247681	323
30	13631	32.87829578112	323
30	13657	32.942845516024	323
30	13772	33.478295785558	323
30	13834	33.838824257382	323
30	13863	33.942845515424	323
30	13941	34.078295790489	323
30	14022	34.63882426506	323
30	14054	34.678295795657	323
30	14098	34.942845515098	323
30	14195	35.278295800853	323
30	14239	35.438824272615	323
30	14304	35.942845514929	323
30	14398	36.238824279773	323
30	14430	36.278295809348	323
30	14510	36.942845514866	323
30	14557	37.038824286759	323
30	14636	37.278295817655	323
30	14689	37.538824290281	323
30	14745	37.838552292047	123
30	14774	37.942845514803	323
30	14859	38.138824293549	323
30	14891	38.178295825089	323
30	14935	38.338552294022	123
30	14982	38.538552294432	123
30	15029	38.738824294799	323
30	15067	38.838552294824	123
30	15105	38.938552294809	123
30	15124	38.942845514786	323
30	15166	38.978295831795	323
30	15201	39.038552294765	123
30	15268	39.138552294698	123
30	15306	39.238824294609	323
30	15344	39.338552294501	123
30	15382	39.43855229436	123
30	15420	39.538552294204	123
30	15458	39.638552294002	123
30	15496	39.738824293787	323
30	15528	39.778295838686	323
30	15563	39.838552293553	123
30	15601	39.938552293287	123
30	15620	39.942845514769	323
30	15706	40.138552292701	123
30	15753	40.338824292053	323
30	15800	40.538552291316	123
30	15832	40.578295845144	323
30	15876	40.738552290508	123
30	15914	40.942845514766	323
30	15955	40.978023847254	123
30	16031	41.178295847966	323
30	16078	41.378023848057	123
30	16116	41.478023847904	123
30	16154	41.578023847735	123
30	16189	41.638824285928	323
30	16221	41.678295847551	323
30	16259	41.778023847233	123
30	16297	41.878023846808	123
30	16323	41.942845514718	323
30	16364	41.978023846359	123
30	16430	42.078023845907	123
30	16469	42.178295845422	323
30	16507	42.278023844915	123
30	16545	42.378023844363	123
30	16580	42.438824280429	323
30	16612	42.47802384379	123
30	16650	42.5780238432	123
30	16688	42.678295842589	323
30	16726	42.778023841956	123
30	16761	42.942845514735	323
30	16849	43.178295839218	323
30	16884	43.238824273591	323
30	16943	43.57802383616	123
30	17005	43.938824266645	323
30	17024	43.942845514743	323
30	17066	43.978295832826	323
30	17139	44.138552265279	123
30	17180	44.278023830571	123
30	17215	44.3385522645	123
30	17262	44.538824264331	323
30	17294	44.578295829045	323
30	17338	44.738552264757	123
30	17379	44.878023828196	123
30	17414	44.938552265291	123
30	17433	44.942845514753	323
30	17519	45.138824265753	323
30	17551	45.178295827699	323
30	17595	45.338552266136	123
30	17636	45.478023827343	123
30	17692	45.778295827077	323
30	17727	45.942845514767	323
30	17821	46.23882426695	323
30	17898	46.778295826341	323
30	17933	46.942845514752	323
30	17980	47.038824266213	323
30	18104	47.778295824802	323
30	18139	47.838824264253	323
30	18168	47.942845514738	323
30	18265	48.278295824129	323
30	18327	48.638824261121	323
30	18368	48.778295825055	323
30	18403	48.942845514724	323
30	18500	49.278295825474	323
30	18544	49.438824256764	323
30	18603	49.778295825347	323
30	18638	49.942845514722	323
30	18732	50.238824251104	323
30	18800	50.678295823825	323
30	18844	50.942845514745	323
30	18891	51.03882424429	323
30	18997	51.578295820683	323
30	19041	51.738824237731	323
30	19079	51.942845514749	323
30	19126	52.038552235601	123
30	19202	52.238824234897	323
30	19243	52.378295816463	323
30	19278	52.438552234285	123
30	19325	52.638552233596	123
30	19372	52.838824232816	323
30	19401	52.942845514762	323
30	19489	53.178295810797	323
30	19578	53.838824228411	323
30	19607	53.942845514773	323
30	19648	53.9782958038	323
30	19778	54.778295796751	323
30	19813	54.838824225668	323
30	19842	54.942845514764	323
30	19948	55.378295792721	323
30	19995	55.578023791871	123
30	20042	55.77802379162	123
30	20077	55.838824224095	323
30	20106	55.942845514749	323
30	20147	55.978295791954	323
30	20223	56.178023792893	123
30	20270	56.378023794443	123
30	20317	56.578295796426	323
30	20364	56.778023798421	123
30	20399	56.838824223276	323
30	20428	56.942845514771	323
30	20469	56.978023800409	123
30	20605	57.838824222785	323
30	20634	57.942845514744	323
30	20675	57.978295810329	323
30	20806	58.83882422252	323
30	20840	58.942845514732	323
30	20881	58.978295820257	323
30	21012	59.838824222377	323
30	21046	59.942845514719	323
30	21087	59.978295830185	323
30	21218	60.838824222286	323
30	21252	60.942845514719	323
30	21293	60.978295840106	323
30	21424	61.838824222261	323
30	21458	61.942845514735	323
30	21499	61.978295849351	323
30	21629	62.778295855135	323
30	21659	62.838824222258	323
30	21693	62.94284551473	323
30	21817	63.578295859654	323
30	21865	63.838824222227	323
30	21904	63.942845514742	323
30	22005	64.378295862886	323
30	22071	64.838824222252	323
30	22110	64.942845514741	323
30	22193	65.178295864802	323
30	22277	65.838824222257	323
30	22316	65.942845514763	323
30	22352	65.978295865452	323
30	22482	66.77829586471	323
30	22512	66.838824222262	323
30	22551	66.942845514771	323
30	22670	67.578295862654	323
30	22718	67.838824222268	323
30	22757	67.942845514756	323
30	22858	68.378295859349	323
30	22924	68.838824222222	323
30	22963	68.942845514738	323
30	23046	69.178295854802	323
30	23130	69.838824222235	323
30	23169	69.942845514746	323
30	23205	69.978295848895	323
30	23335	70.778295841784	323
30	23365	70.83882422223	323
30	23399	70.942845514728	323
30	23514	71.478295834602	323
30	23571	71.838824222229	323
30	23605	71.942845514712	323
30	23693	72.178295826386	323
30	23776	72.778295818519	323
30	23806	72.838824222235	323
30	23840	72.942845514722	323
30	23946	73.378295809907	323
30	24011	73.778023804635	123
30	24046	73.838824222224	323
30	24080	73.942845514729	323
30	24163	74.178295800197	323
30	24228	74.578023796456	123
30	24281	74.838824222242	323
30	24315	74.942845514739	323
30	24351	74.978295793384	323
30	24445	75.378023790835	123
30	24510	75.778295788779	323
30	24545	75.838824222239	323
30	24579	75.942845514746	323
30	24707	76.67829578551	323
30	24751	76.838824222257	323
30	24780	76.94284551474	323
30	24904	77.578295783533	323
30	24957	77.838824222248	323
30	24991	77.942845514741	323
30	25101	78.478295782382	323
30	25163	78.83882422225	323
30	25194	78.942845514743	323
30	25298	79.378295781696	323
30	25369	79.838824222254	323
30	25403	79.942845514752	323
30	25504	80.378295781295	323
30	25575	80.83882422226	323
30	25609	80.942845514739	323
30	25710	81.378295781092	323
30	25781	81.838824222249	323
30	25815	81.942845514749	323
30	25916	82.378295780987	323
30	25987	82.838824222259	323
30	26016	82.942845514732	323
30	26122	83.378295780918	323
30	26193	83.838824222241	323
30	26227	83.942845514745	323
30	26328	84.378295780904	323
30	26399	84.838824222252	323
30	26433	84.942845514738	323
30	26534	85.378295780872	323
30	26605	85.838824222244	323
30	26634	85.942845514729	323
30	26740	86.378295780877	323
30	26811	86.838824222245	323
30	26845	86.942845514743	323
30	26946	87.378295780881	323
30	27017	87.838824222249	323
11	12	0.271518936497	323
11	29	0.471518936497	123
11	46	0.671518936497	123
11	64	0.871518936497	323
11	135	1.271518936497	123
11	206	1.671518936497	323
11	319	2.071518936497	123
11	379	2.271518936497	323
11	462	2.471518936497	123
11	522	2.671518936497	123
11	582	2.871518936497	323
11	642	3.071518936497	123
11	739	3.271518936497	123
11	844	3.471518936497	323
11	949	3.671518936497	123
11	1083	3.871518936497	123
11	1159	4.071518936497	323
11	1206	4.271518936497	123
11	1244	4.371518936497	123
11	1282	4.471518936497	123
11	1378	4.571518936497	323
11	1416	4.671518936497	123
11	1454	4.771518936497	123
11	1521	4.871518936497	123
11	1559	4.971518936497	123
11	1597	5.071518936497	323
11	1664	5.171518936497	123
11	1731	5.271518936497	123
11	1769	5.371518936497	123
11	1807	5.471518936497	123
11	1845	5.571518936497	323
11	1883	5.671518936497	123
11	2064	6.071518936497	323
11	2216	6.471518936497	123
11	2455	6.871518936497	323
11	2665	7.271518936497	123
11	2884	7.771518936497	323
11	3074	8.271518936497	323
11	3322	8.771518936497	323
11	3628	9.271518936497	323
11	3809	9.671518936497	123
11	3990	10.071518936497	323
11	4113	10.471518936497	123
11	4265	10.871518936497	323
11	4417	11.271518936497	123
11	4569	11.671518936497	323
11	4808	12.071518936497	123
11	5047	12.471518936497	323
11	5257	12.871518936497	123
11	5438	13.271518936497	323
11	5590	13.671518936497	123
11	5742	14.071518936497	323
11	5894	14.471518936497	123
11	6046	14.871518936497	323
11	6198	15.271518936497	123
11	6350	15.671518936497	323
11	6473	16.071518936497	123
11	6625	16.471518936497	323
11	6777	16.871518936497	123
11	6929	17.271518936497	323
11	7081	17.671518936497	123
11	7233	18.071518936497	323
11	7385	18.471518936497	123
11	7537	18.871518936497	323
11	7689	19.271518936497	123
11	7841	19.671518936497	323
11	7993	20.071518936497	123
11	8145	20.471518936497	323
11	8297	20.871518936497	123
11	8449	21.271518936497	323
11	8601	21.671518936497	123
11	8753	22.071518936497	323
11	8905	22.471518936497	123
11	9057	22.871518936497	323
11	9200	23.171518936497	123
11	9276	23.371518936497	323
11	9381	23.571518936497	123
11	9457	23.771518936497	123
11	9562	23.971518936497	323
11	9638	24.171518936497	123
11	9743	24.371518936497	123
11	9819	24.571518936497	323
11	9915	24.671518936497	123
11	9953	24.771518936497	123
11	9991	24.871518936497	123
11	10058	24.971518936497	123
11	10154	25.071518936497	323
11	10192	25.171518936497	123
11	10230	25.271518936497	123
11	10297	25.371518936497	123
11	10393	25.471518936497	123
11	10431	25.571518936497	323
11	10469	25.671518936497	123
11	10536	25.771518936497	123
11	10632	25.871518936497	123
11	10717	26.171518936497	323
11	10860	26.471518936497	123
11	11003	26.771518936497	323
11	11146	27.071518936497	123
11	11468	28.071518936497	323
11	11964	29.071518936497	323
11	12489	30.071518936497	323
11	13043	31.071518936497	323
11	13423	32.071518936497	323
11	13687	33.071518936497	323
11	13893	34.071518936497	323
11	14128	35.071518936497	323
11	14334	36.071518936497	323
11	14569	37.071518936497	323
11	14804	38.071518936497	323
11	15213	39.071518936497	323
11	15651	40.071518936497	323
11	15973	41.071518936497	323
11	16382	42.071518936497	323
11	16791	43.071518936497	323
11	17084	44.071518936497	323
11	17464	45.071518936497	323
11	17757	46.071518936497	323
11	17992	47.071518936497	323
11	18198	48.071518936497	323
11	18433	49.071518936497	323
11	18668	50.071518936497	323
11	18903	51.071518936497	323
11	19138	52.071518936497	323
11	19431	53.071518936497	323
11	19666	54.071518936497	323
11	19872	55.071518936497	323
11	20165	56.071518936497	323
11	20487	57.071518936497	323
11	20693	58.071518936497	323
11	20899	59.071518936497	323
11	21105	60.071518936497	323
11	21311	61.071518936497	323
11	21517	62.071518936497	323
11	21723	63.071518936497	323
11	21929	64.071518936497	323
11	22135	65.071518936497	323
11	22370	66.071518936497	323
11	22576	67.071518936497	323
11	22782	68.071518936497	323
11	22988	69.071518936497	323
11	23223	70.071518936497	323
11	23429	71.071518936497	323
11	23635	72.071518936497	323
11	23870	73.071518936497	323
11	24105	74.071518936497	323
11	24369	75.071518936497	323
11	24604	76.071518936497	323
11	24810	77.071518936497	323
11	25016	78.071518936497	323
11	25222	79.071518936497	323
11	25428	80.071518936497	323
11	25634	81.071518936497	323
11	25840	82.071518936497	323
11	26046	83.071518936497	323
11	26252	84.071518936497	323
11	26458	85.071518936497	323
11	26664	86.071518936497	323
11	26870	87.071518936497	323
10	9	0.271518936497	323
10	26	0.471518936497	123
10	43	0.671518936497	123
10	61	0.871518936497	323
10	132	1.271518936497	123
10	203	1.671518936497	323
10	316	2.071518936497	123
10	376	2.271518936497	323
10	459	2.471518936497	123
10	519	2.671518936497	123
10	579	2.871518936497	323
10	639	3.071518936497	123
10	736	3.271518936497	123
10	841	3.471518936497	323
10	946	3.671518936497	123
10	1080	3.871518936497	123
10	1156	4.071518936497	323
10	1203	4.271518936497	123
10	1241	4.371518936497	123
10	1279	4.471518936497	123
10	1375	4.571518936497	323
10	1413	4.671518936497	123
10	1451	4.771518936497	123
10	1518	4.871518936497	123
10	1556	4.971518936497	123
10	1594	5.071518936497	323
10	1661	5.171518936497	123
10	1728	5.271518936497	123
10	1766	5.371518936497	123
10	1804	5.471518936497	123
10	1842	5.571518936497	323
10	1880	5.671518936497	123
10	2061	6.071518936497	323
10	2213	6.471518936497	123
10	2452	6.871518936497	323
10	2662	7.271518936497	123
10	2881	7.771518936497	323
10	3071	8.271518936497	323
10	3319	8.771518936497	323
10	3625	9.271518936497	323
10	3806	9.671518936497	123
10	3987	10.071518936497	323
10	4110	10.471518936497	123
10	4262	10.871518936497	323
10	4414	11.271518936497	123
10	4566	11.671518936497	323
10	4805	12.071518936497	123
10	5044	12.471518936497	323
10	5254	12.871518936497	123
10	5435	13.271518936497	323
10	5587	13.671518936497	123
10	5739	14.071518936497	323
10	5891	14.471518936497	123
10	6043	14.871518936497	323
10	6195	15.271518936497	123
10	6347	15.671518936497	323
10	6470	16.071518936497	123
10	6622	16.471518936497	323
10	6774	16.871518936497	123
10	6926	17.271518936497	323
10	7078	17.671518936497	123
10	7230	18.071518936497	323
10	7382	18.471518936497	123
10	7534	18.871518936497	323
10	7686	19.271518936497	123
10	7838	19.671518936497	323
10	7990	20.071518936497	123
10	8142	20.471518936497	323
10	8294	20.871518936497	123
10	8446	21.271518936497	323
10	8598	21.671518936497	123
10	8750	22.071518936497	323
10	8902	22.471518936497	123
10	9054	22.871518936497	323
10	9197	23.171518936497	123
10	9273	23.371518936497	323
10	9378	23.571518936497	123
10	9454	23.771518936497	123
10	9559	23.971518936497	323
10	9635	24.171518936497	123
10	9740	24.371518936497	123
10	9816	24.571518936497	323
10	9912	24.671518936497	123
10	9950	24.771518936497	123
10	9988	24.871518936497	123
10	10055	24.971518936497	123
10	10151	25.071518936497	323
10	10189	25.171518936497	123
10	10227	25.271518936497	123
10	10294	25.371518936497	123
10	10390	25.471518936497	123
10	10428	25.571518936497	323
10	10466	25.671518936497	123
10	10533	25.771518936497	123
10	10629	25.871518936497	123
10	10714	26.171518936497	323
10	10857	26.471518936497	123
10	11000	26.771518936497	323
10	11143	27.071518936497	123
10	11465	28.071518936497	323
10	11961	29.071518936497	323
10	12486	30.071518936497	323
10	13040	31.071518936497	323
10	13420	32.071518936497	323
10	13684	33.071518936497	323
10	13890	34.071518936497	323
10	14125	35.071518936497	323
10	14331	36.071518936497	323
10	14566	37.071518936497	323
10	14801	38.071518936497	323
10	15210	39.071518936497	323
10	15648	40.071518936497	323
10	15970	41.071518936497	323
10	16379	42.071518936497	323
10	16788	43.071518936497	323
10	17081	44.071518936497	323
10	17461	45.071518936497	323
10	17754	46.071518936497	323
10	17989	47.071518936497	323
10	18195	48.071518936497	323
10	18430	49.071518936497	323
10	18665	50.071518936497	323
10	18900	51.071518936497	323
10	19135	52.071518936497	323
10	19428	53.071518936497	323
10	19663	54.071518936497	323
10	19869	55.071518936497	323
10	20162	56.071518936497	323
10	20484	57.071518936497	323
10	20690	58.071518936497	323
10	20896	59.071518936497	323
10	21102	60.071518936497	323
10	21308	61.071518936497	323
10	21514	62.071518936497	323
10	21720	63.071518936497	323
10	21926	64.071518936497	323
10	22132	65.071518936497	323
10	22367	66.071518936497	323
10	22573	67.071518936497	323
10	22779	68.071518936497	323
10	22985	69.071518936497	323
10	23220	70.071518936497	323
10	23426	71.071518936497	323
10	23632	72.071518936497	323
10	23867	73.071518936497	323
10	24102	74.071518936497	323
10	24366	75.071518936497	323
10	24601	76.071518936497	323
10	24807	77.071518936497	323
10	25013	78.071518936497	323
10	25219	79.071518936497	323
10	25425	80.071518936497	323
10	25631	81.071518936497	323
10	25837	82.071518936497	323
10	26043	83.071518936497	323
10	26249	84.071518936497	323
10	26455	85.071518936497	323
10	26661	86.071518936497	323
10	26867	87.071518936497	323
31	92	0.942845508031	323
31	119	1.142573510304	123
31	163	1.342573512506	123
31	190	1.542845514621	323
31	247	1.838824216076	323
31	284	2.038552220181	123
31	307	2.042845519005	323
31	367	2.238552223617	123
31	427	2.438824226363	323
31	450	2.442573521054	123
31	511	2.642845521748	323
31	571	2.842573522212	123
31	631	3.04257352244	123
31	690	3.138824231514	323
31	723	3.242845522609	323
31	787	3.278295781579	323
31	828	3.44257352326	123
31	892	3.478023784368	123
31	933	3.642573523599	123
31	997	3.678023787196	123
31	1042	3.838824234846	323
31	1066	3.842845523533	323
31	1131	3.878295789519	323
31	1337	4.538824234036	323
31	1361	4.542845521485	323
31	1502	4.778295794218	323
31	1643	5.142845517212	323
31	1719	5.238824224327	323
31	1931	5.678295783523	323
31	1958	5.742845517487	323
31	2014	5.938824216362	323
31	2033	5.942573519489	123
31	2110	6.142573522497	123
31	2162	6.342845525005	323
31	2200	6.442573525684	123
31	2267	6.542573526425	123
31	2303	6.578295775636	323
31	2338	6.638824219327	323
31	2362	6.642573527236	123
31	2401	6.742573528101	123
31	2439	6.842845528523	323
31	2506	6.942573528977	123
31	2544	7.042573529453	123
31	2582	7.142573529946	123
31	2624	7.238824230561	323
31	2648	7.242573530469	123
31	2716	7.342845531014	323
31	2754	7.442573531546	123
31	2790	7.478295777161	323
31	2821	7.542573536662	123
31	2859	7.642573537639	123
31	2939	7.838824246458	323
31	2986	8.038552251243	123
31	3010	8.042845539741	323
31	3062	8.238552256378	123
31	3132	8.378295789735	323
31	3167	8.438824260359	323
31	3191	8.442573541852	123
31	3234	8.538552261695	123
31	3272	8.638552263059	123
31	3310	8.738552264446	123
31	3377	8.838552265856	123
31	3401	8.842845543991	323
31	3444	8.9388242668	323
31	3482	9.03855226769	123
31	3520	9.138552268576	123
31	3552	9.178295809908	323
31	3587	9.238552269459	123
31	3611	9.242573546107	123
31	3683	9.338552270342	123
31	3721	9.438824271219	323
31	3759	9.538552272088	123
31	3797	9.63855227703	123
31	3864	9.738552278846	123
31	3888	9.742845548671	323
31	3931	9.838552279707	123
31	3963	9.8782958329	323
31	4054	10.23882428323	323
31	4078	10.24284555137	323
31	4171	10.578295858633	323
31	4206	10.638552286813	123
31	4240	10.742845554089	323
31	4329	11.038824290358	323
31	4361	11.078295878	323
31	4401	11.242845556744	323
31	4465	11.278023884619	123
31	4510	11.438552293832	123
31	4542	11.478023891382	123
31	4617	11.678295896859	323
31	4649	11.742845559405	323
31	4685	11.77802389884	123
31	4723	11.878023900835	123
31	4758	11.938824298095	323
31	4790	11.978023902828	123
31	4856	12.078023904818	123
31	4888	12.142573561391	123
31	4924	12.178295906232	323
31	4962	12.27802390763	123
31	5000	12.378023909013	123
31	5035	12.438824301979	323
31	5095	12.478023910381	123
31	5127	12.54284556318	323
31	5163	12.578023911721	123
31	5201	12.678295913051	323
31	5239	12.778023914345	123
31	5305	12.878023920658	123
31	5341	12.938824305301	323
31	5365	12.942573564953	123
31	5402	12.978023921909	123
31	5489	13.342845566786	323
31	5525	13.378295926701	323
31	5560	13.438824308138	323
31	5641	13.742573568577	123
31	5677	13.778023931141	123
31	5712	13.838552310021	123
31	5793	14.142845570373	323
31	5829	14.178295935283	323
31	5864	14.238824311632	323
31	5945	14.542573572145	123
31	5981	14.578023939093	123
31	6016	14.638552312926	123
31	6097	14.942845573936	323
31	6139	15.038824313916	323
31	6171	15.078295943361	323
31	6249	15.342573575718	123
31	6291	15.438552314893	123
31	6332	15.578295947145	323
31	6401	15.742845577516	323
31	6443	15.838824315913	323
31	6521	16.078295950404	323
31	6553	16.142573579302	123
31	6595	16.238552316996	123
31	6676	16.542845581086	323
31	6712	16.578295953109	323
31	6747	16.638824318181	323
31	6828	16.942573582892	123
31	6864	16.978023954904	123
31	6899	17.038552319453	123
31	6980	17.34284558468	323
31	7016	17.378295956369	323
31	7051	17.438824320789	323
31	7132	17.742573586464	123
31	7168	17.778023957562	123
31	7203	17.838552322152	123
31	7284	18.142845588237	323
31	7320	18.178295958454	323
31	7355	18.238824323547	323
31	7436	18.542573590023	123
31	7472	18.578023959069	123
31	7507	18.638552325004	123
31	7588	18.942845591825	323
31	7624	18.978295959332	323
31	7659	19.038824326522	323
31	7740	19.342573593613	123
31	7776	19.37802395928	123
31	7811	19.438552328038	123
31	7892	19.742845595415	323
31	7928	19.778295958966	323
31	7963	19.838824329621	323
31	8044	20.142573597197	123
31	8080	20.178023958631	123
31	8115	20.238552331216	123
31	8196	20.542845598978	323
31	8232	20.578295958287	323
31	8267	20.638824332821	323
31	8348	20.942573600785	123
31	8384	20.978023957976	123
31	8419	21.038552334473	123
31	8500	21.342845602554	323
31	8536	21.378295957634	323
31	8571	21.438824336098	323
31	8652	21.742573604347	123
31	8688	21.778023957296	123
31	8723	21.838552337756	123
31	8804	22.142845606121	323
31	8840	22.178295956952	323
31	8875	22.23882433945	323
31	8956	22.542573607901	123
31	8992	22.578023956626	123
31	9027	22.638552341146	123
31	9108	22.942845609688	323
31	9144	22.978295956287	323
31	9179	23.038824342672	323
31	9260	23.34257360996	123
31	9324	23.378023954445	123
31	9360	23.438552342284	123
31	9441	23.742845607842	323
31	9505	23.778295950218	323
31	9541	23.838824339478	323
31	9622	24.142573603436	123
31	9686	24.178023943691	123
31	9722	24.238552334687	123
31	9803	24.542845597971	323
31	9867	24.578295936086	323
31	9903	24.638824328698	323
31	10042	24.942573589531	123
31	10106	24.978023925283	123
31	10142	25.038552318749	123
31	10281	25.342845577803	323
31	10345	25.378295910679	323
31	10381	25.438824306185	323
31	10520	25.742573565273	123
31	10584	25.778023895189	123
31	10620	25.838552293032	123
31	10701	26.142845553462	323
31	10765	26.178295880016	323
31	10801	26.238824280226	323
31	10844	26.44257354583	123
31	10918	26.578023865483	123
31	10953	26.638552268499	123
31	10987	26.742845539493	323
31	11070	26.978295851901	323
31	11105	27.038824257992	323
31	11124	27.042573534544	123
31	11210	27.342845531068	323
31	11251	27.378023839274	123
31	11286	27.438552248797	123
31	11324	27.642573529097	123
31	11374	27.778295827624	323
31	11409	27.83882424094	323
31	11438	27.942845528588	323
31	11523	28.138552236118	123
31	11555	28.178023817014	123
31	11581	28.242573528905	123
31	11637	28.438824232122	323
31	11666	28.542845529303	323
31	11707	28.578295807573	323
31	11751	28.738552228829	123
31	11770	28.742573529039	123
31	11809	28.842573528828	123
31	11847	28.942573528255	123
31	11888	28.978023799056	123
31	11923	29.038824226371	323
31	11942	29.04284552773	323
31	12010	29.142573527249	123
31	12053	29.242573526654	123
31	12091	29.342573526023	123
31	12127	29.378295791654	323
31	12158	29.442573525412	123
31	12196	29.542845524831	323
31	12238	29.638824223914	323
31	12262	29.642573524286	123
31	12301	29.742573523759	123
31	12339	29.842573523261	123
31	12375	29.878295783989	323
31	12406	29.942573522784	123
31	12448	30.038552224031	123
31	12472	30.04284552232	323
31	12540	30.142573521884	123
31	12576	30.178023780324	123
31	12611	30.238824224703	323
31	12645	30.342573521087	123
31	12681	30.378295778423	323
31	12716	30.438552225741	123
31	12750	30.542845520371	323
31	12786	30.57802377696	123
31	12821	30.638552227076	123
31	12855	30.742573519734	123
31	12891	30.7780237759	123
31	12926	30.838824228633	323
31	12955	30.942573519153	123
31	12996	30.9782957752	323
31	13031	31.038552230386	123
31	13101	31.178023774855	123
31	13136	31.238552232287	123
31	13177	31.378023774807	123
31	13212	31.438824234199	323
31	13259	31.638552236119	123
31	13291	31.67829577524	323
31	13335	31.838552238039	123
31	13364	31.942845517141	323
31	13405	31.978023776175	123
31	13490	32.278295777523	323
31	13546	32.578023779181	123
31	13599	32.838824247681	323
31	13631	32.87829578112	323
31	13657	32.942845516024	323
31	13772	33.478295785558	323
31	13834	33.838824257382	323
31	13863	33.942845515424	323
31	13941	34.078295790489	323
31	14022	34.63882426506	323
31	14054	34.678295795657	323
31	14098	34.942845515098	323
31	14195	35.278295800853	323
31	14239	35.438824272615	323
31	14304	35.942845514929	323
31	14398	36.238824279773	323
31	14430	36.278295809348	323
31	14510	36.942845514866	323
31	14557	37.038824286759	323
31	14636	37.278295817655	323
31	14689	37.538824290281	323
31	14745	37.838552292047	123
31	14774	37.942845514803	323
31	14859	38.138824293549	323
31	14891	38.178295825089	323
31	14935	38.338552294022	123
31	14982	38.538552294432	123
31	15029	38.738824294799	323
31	15067	38.838552294824	123
31	15105	38.938552294809	123
31	15124	38.942845514786	323
31	15166	38.978295831795	323
31	15201	39.038552294765	123
31	15268	39.138552294698	123
31	15306	39.238824294609	323
31	15344	39.338552294501	123
31	15382	39.43855229436	123
31	15420	39.538552294204	123
31	15458	39.638552294002	123
31	15496	39.738824293787	323
31	15528	39.778295838686	323
31	15563	39.838552293553	123
31	15601	39.938552293287	123
31	15620	39.942845514769	323
31	15706	40.138552292701	123
31	15753	40.338824292053	323
31	15800	40.538552291316	123
31	15832	40.578295845144	323
31	15876	40.738552290508	123
31	15914	40.942845514766	323
31	15955	40.978023847254	123
31	16031	41.178295847966	323
31	16078	41.378023848057	123
31	16116	41.478023847904	123
31	16154	41.578023847735	123
31	16189	41.638824285928	323
31	16221	41.678295847551	323
31	16259	41.778023847233	123
31	16297	41.878023846808	123
31	16323	41.942845514718	323
31	16364	41.978023846359	123
31	16430	42.078023845907	123
31	16469	42.178295845422	323
31	16507	42.278023844915	123
31	16545	42.378023844363	123
31	16580	42.438824280429	323
31	16612	42.47802384379	123
31	16650	42.5780238432	123
31	16688	42.678295842589	323
31	16726	42.778023841956	123
31	16761	42.942845514735	323
31	16849	43.178295839218	323
31	16884	43.238824273591	323
31	16943	43.57802383616	123
31	17005	43.938824266645	323
31	17024	43.942845514743	323
31	17066	43.978295832826	323
31	17139	44.138552265279	123
31	17180	44.278023830571	123
31	17215	44.3385522645	123
31	17262	44.538824264331	323
31	17294	44.578295829045	323
31	17338	44.738552264757	123
31	17379	44.878023828196	123
31	17414	44.938552265291	123
31	17433	44.942845514753	323
31	17519	45.138824265753	323
31	17551	45.178295827699	323
31	17595	45.338552266136	123
31	17636	45.478023827343	123
31	17692	45.778295827077	323
31	17727	45.942845514767	323
31	17821	46.23882426695	323
31	17898	46.778295826341	323
31	17933	46.942845514752	323
31	17980	47.038824266213	323
31	18104	47.778295824802	323
31	18139	47.838824264253	323
31	18168	47.942845514738	323
31	18265	48.278295824129	323
31	18327	48.638824261121	323
31	18368	48.778295825055	323
31	18403	48.942845514724	323
31	18500	49.278295825474	323
31	18544	49.438824256764	323
31	18603	49.778295825347	323
31	18638	49.942845514722	323
31	18732	50.238824251104	323
31	18800	50.678295823825	323
31	18844	50.942845514745	323
31	18891	51.03882424429	323
31	18997	51.578295820683	323
31	19041	51.738824237731	323
31	19079	51.942845514749	323
31	19126	52.038552235601	123
31	19202	52.238824234897	323
31	19243	52.378295816463	323
31	19278	52.438552234285	123
31	19325	52.638552233596	123
31	19372	52.838824232816	323
31	19401	52.942845514762	323
31	19489	53.178295810797	323
31	19578	53.838824228411	323
31	19607	53.942845514773	323
31	19648	53.9782958038	323
31	19778	54.778295796751	323
31	19813	54.838824225668	323
31	19842	54.942845514764	323
31	19948	55.378295792721	323
31	19995	55.578023791871	123
31	20042	55.77802379162	123
31	20077	55.838824224095	323
31	20106	55.942845514749	323
31	20147	55.978295791954	323
31	20223	56.178023792893	123
31	20270	56.378023794443	123
31	20317	56.578295796426	323
31	20364	56.778023798421	123
31	20399	56.838824223276	323
31	20428	56.942845514771	323
31	20469	56.978023800409	123
31	20605	57.838824222785	323
31	20634	57.942845514744	323
31	20675	57.978295810329	323
31	20806	58.83882422252	323
31	20840	58.942845514732	323
31	20881	58.978295820257	323
31	21012	59.838824222377	323
31	21046	59.942845514719	323
31	21087	59.978295830185	323
31	21218	60.838824222286	323
31	21252	60.942845514719	323
31	21293	60.978295840106	323
31	21424	61.838824222261	323
31	21458	61.942845514735	323
31	21499	61.978295849351	323
31	21629	62.778295855135	323
31	21659	62.838824222258	323
31	21693	62.94284551473	323
31	21817	63.578295859654	323
31	21865	63.838824222227	323
31	21904	63.942845514742	323
31	22005	64.378295862886	323
31	22071	64.838824222252	323
31	22110	64.942845514741	323
31	22193	65.178295864802	323
31	22277	65.838824222257	323
31	22316	65.942845514763	323
31	22352	65.978295865452	323
31	22482	66.77829586471	323
31	22512	66.838824222262	323
31	22551	66.942845514771	323
31	22670	67.578295862654	323
31	22718	67.838824222268	323
31	22757	67.942845514756	323
31	22858	68.378295859349	323
31	22924	68.838824222222	323
31	22963	68.942845514738	323
31	23046	69.178295854802	323
31	23130	69.838824222235	323
31	23169	69.942845514746	323
31	23205	69.978295848895	323
31	23335	70.778295841784	323
31	23365	70.83882422223	323
31	23399	70.942845514728	323
31	23514	71.478295834602	323
31	23571	71.838824222229	323
31	23605	71.942845514712	323
31	23693	72.178295826386	323
31	23776	72.778295818519	323
31	23806	72.838824222235	323
31	23840	72.942845514722	323
31	23946	73.378295809907	323
31	24011	73.778023804635	123
31	24046	73.838824222224	323
31	24080	73.942845514729	323
31	24163	74.178295800197	323
31	24228	74.578023796456	123
31	24281	74.838824222242	323
31	24315	74.942845514739	323
31	24351	74.978295793384	323
31	24445	75.378023790835	123
31	24510	75.778295788779	323
31	24545	75.838824222239	323
31	24579	75.942845514746	323
31	24707	76.67829578551	323
31	24751	76.838824222257	323
31	24780	76.94284551474	323
31	24904	77.578295783533	323
31	24957	77.838824222248	323
31	24991	77.942845514741	323
31	25101	78.478295782382	323
31	25163	78.83882422225	323
31	25194	78.942845514743	323
31	25298	79.378295781696	323
31	25369	79.838824222254	323
31	25403	79.942845514752	323
31	25504	80.378295781295	323
31	25575	80.83882422226	323
31	25609	80.942845514739	323
31	25710	81.378295781092	323
31	25781	81.838824222249	323
31	25815	81.942845514749	323
31	25916	82.378295780987	323
31	25987	82.838824222259	323
31	26016	82.942845514732	323
31	26122	83.378295780918	323
31	26193	83.838824222241	323
31	26227	83.942845514745	323
31	26328	84.378295780904	323
31	26399	84.838824222252	323
31	26433	84.942845514738	323
31	26534	85.378295780872	323
31	26605	85.838824222244	323
31	26634	85.942845514729	323
31	26740	86.378295780877	323
31	26811	86.838824222245	323
31	26845	86.942845514743	323
31	26946	87.378295780881	323
31	27017	87.838824222249	323
3	2	0.1	0
3	2	0.1	0
3	13	0.271518936497	0
3	13	0.271518936497	0
3	16	0.271998936497	0
3	16	0.271998936497	0
3	30	0.471518936497	0
3	30	0.471518936497	0
3	33	0.471726936497	0
3	33	0.471726936497	0
3	47	0.671518936497	0
3	47	0.671518936497	0
3	50	0.671726936497	0
3	50	0.671726936497	0
3	65	0.871518936497	0
3	65	0.871518936497	0
3	69	0.871998936497	0
3	69	0.871998936497	0
3	88	0.942365508031	0
3	88	0.942365508031	0
3	91	0.942845508031	0
3	91	0.942845508031	0
3	115	1.142365510304	0
3	115	1.142365510304	0
3	118	1.142573510304	0
3	118	1.142573510304	0
3	136	1.271518936497	0
3	136	1.271518936497	0
3	140	1.271726936497	0
3	140	1.271726936497	0
3	159	1.342365512506	0
3	159	1.342365512506	0
3	162	1.342573512506	0
3	162	1.342573512506	0
3	186	1.542365514621	0
3	186	1.542365514621	0
3	189	1.542845514621	0
3	189	1.542845514621	0
3	207	1.671518936497	0
3	207	1.671518936497	0
3	211	1.671998936497	0
3	211	1.671998936497	0
3	238	1.838344216076	0
3	238	1.838344216076	0
3	246	1.838824216076	0
3	246	1.838824216076	0
3	275	2.038344220181	0
3	275	2.038344220181	0
3	283	2.038552220181	0
3	283	2.038552220181	0
3	298	2.042365519005	0
3	298	2.042365519005	0
3	306	2.042845519005	0
3	306	2.042845519005	0
3	320	2.071518936497	0
3	320	2.071518936497	0
3	325	2.071726936497	0
3	325	2.071726936497	0
3	358	2.238344223617	0
3	358	2.238344223617	0
3	366	2.238552223617	0
3	366	2.238552223617	0
3	380	2.271518936497	0
3	380	2.271518936497	0
3	385	2.271998936497	0
3	385	2.271998936497	0
3	418	2.438344226363	0
3	418	2.438344226363	0
3	426	2.438824226363	0
3	426	2.438824226363	0
3	441	2.442365521054	0
3	441	2.442365521054	0
3	449	2.442573521054	0
3	449	2.442573521054	0
3	463	2.471518936497	0
3	463	2.471518936497	0
3	468	2.471726936497	0
3	468	2.471726936497	0
3	502	2.642365521748	0
3	502	2.642365521748	0
3	510	2.642845521748	0
3	510	2.642845521748	0
3	523	2.671518936497	0
3	523	2.671518936497	0
3	528	2.671726936497	0
3	528	2.671726936497	0
3	562	2.842365522212	0
3	562	2.842365522212	0
3	570	2.842573522212	0
3	570	2.842573522212	0
3	583	2.871518936497	0
3	583	2.871518936497	0
3	588	2.871998936497	0
3	588	2.871998936497	0
3	622	3.04236552244	0
3	622	3.04236552244	0
3	630	3.04257352244	0
3	630	3.04257352244	0
3	643	3.071518936497	0
3	643	3.071518936497	0
3	648	3.071726936497	0
3	648	3.071726936497	0
3	676	3.138344231514	0
3	676	3.138344231514	0
3	689	3.138824231514	0
3	689	3.138824231514	0
3	713	3.242365522609	0
3	713	3.242365522609	0
3	722	3.242845522609	0
3	722	3.242845522609	0
3	740	3.271518936497	0
3	740	3.271518936497	0
3	746	3.271726936497	0
3	746	3.271726936497	0
3	773	3.277815781579	0
3	773	3.277815781579	0
3	786	3.278295781579	0
3	786	3.278295781579	0
3	818	3.44236552326	0
3	818	3.44236552326	0
3	827	3.44257352326	0
3	827	3.44257352326	0
3	845	3.471518936497	0
3	845	3.471518936497	0
3	851	3.471998936497	0
3	851	3.471998936497	0
3	878	3.477815784368	0
3	878	3.477815784368	0
3	891	3.478023784368	0
3	891	3.478023784368	0
3	923	3.642365523599	0
3	923	3.642365523599	0
3	932	3.642573523599	0
3	932	3.642573523599	0
3	950	3.671518936497	0
3	950	3.671518936497	0
3	956	3.671726936497	0
3	956	3.671726936497	0
3	983	3.677815787196	0
3	983	3.677815787196	0
3	996	3.678023787196	0
3	996	3.678023787196	0
3	1028	3.838344234846	0
3	1028	3.838344234846	0
3	1041	3.838824234846	0
3	1041	3.838824234846	0
3	1056	3.842365523533	0
3	1056	3.842365523533	0
3	1065	3.842845523533	0
3	1065	3.842845523533	0
3	1084	3.871518936497	0
3	1084	3.871518936497	0
3	1090	3.871726936497	0
3	1090	3.871726936497	0
3	1117	3.877815789519	0
3	1117	3.877815789519	0
3	1130	3.878295789519	0
3	1130	3.878295789519	0
3	1160	4.071518936497	0
3	1160	4.071518936497	0
3	1166	4.071998936497	0
3	1166	4.071998936497	0
3	1207	4.271518936497	0
3	1207	4.271518936497	0
3	1213	4.271726936497	0
3	1213	4.271726936497	0
3	1245	4.371518936497	0
3	1245	4.371518936497	0
3	1251	4.371726936497	0
3	1251	4.371726936497	0
3	1283	4.471518936497	0
3	1283	4.471518936497	0
3	1289	4.471726936497	0
3	1289	4.471726936497	0
3	1323	4.538344234036	0
3	1323	4.538344234036	0
3	1336	4.538824234036	0
3	1336	4.538824234036	0
3	1351	4.542365521485	0
3	1351	4.542365521485	0
3	1360	4.542845521485	0
3	1360	4.542845521485	0
3	1379	4.571518936497	0
3	1379	4.571518936497	0
3	1385	4.571998936497	0
3	1385	4.571998936497	0
3	1417	4.671518936497	0
3	1417	4.671518936497	0
3	1423	4.671726936497	0
3	1423	4.671726936497	0
3	1455	4.771518936497	0
3	1455	4.771518936497	0
3	1461	4.771726936497	0
3	1461	4.771726936497	0
3	1488	4.777815794218	0
3	1488	4.777815794218	0
3	1501	4.778295794218	0
3	1501	4.778295794218	0
3	1522	4.871518936497	0
3	1522	4.871518936497	0
3	1528	4.871726936497	0
3	1528	4.871726936497	0
3	1560	4.971518936497	0
3	1560	4.971518936497	0
3	1566	4.971726936497	0
3	1566	4.971726936497	0
3	1598	5.071518936497	0
3	1598	5.071518936497	0
3	1604	5.071998936497	0
3	1604	5.071998936497	0
3	1637	5.142365517212	0
3	1637	5.142365517212	0
3	1642	5.142845517212	0
3	1642	5.142845517212	0
3	1665	5.171518936497	0
3	1665	5.171518936497	0
3	1671	5.171726936497	0
3	1671	5.171726936497	0
3	1705	5.238344224327	0
3	1705	5.238344224327	0
3	1718	5.238824224327	0
3	1718	5.238824224327	0
3	1732	5.271518936497	0
3	1732	5.271518936497	0
3	1738	5.271726936497	0
3	1738	5.271726936497	0
3	1770	5.371518936497	0
3	1770	5.371518936497	0
3	1776	5.371726936497	0
3	1776	5.371726936497	0
3	1808	5.471518936497	0
3	1808	5.471518936497	0
3	1814	5.471726936497	0
3	1814	5.471726936497	0
3	1846	5.571518936497	0
3	1846	5.571518936497	0
3	1852	5.571998936497	0
3	1852	5.571998936497	0
3	1884	5.671518936497	0
3	1884	5.671518936497	0
3	1890	5.671726936497	0
3	1890	5.671726936497	0
3	1917	5.677815783523	0
3	1917	5.677815783523	0
3	1930	5.678295783523	0
3	1930	5.678295783523	0
3	1952	5.742365517487	0
3	1952	5.742365517487	0
3	1957	5.742845517487	0
3	1957	5.742845517487	0
3	2000	5.938344216362	0
3	2000	5.938344216362	0
3	2013	5.938824216362	0
3	2013	5.938824216362	0
3	2027	5.942365519489	0
3	2027	5.942365519489	0
3	2032	5.942573519489	0
3	2032	5.942573519489	0
3	2065	6.071518936497	0
3	2065	6.071518936497	0
3	2071	6.071998936497	0
3	2071	6.071998936497	0
3	2104	6.142365522497	0
3	2104	6.142365522497	0
3	2109	6.142573522497	0
3	2109	6.142573522497	0
3	2152	6.342365525005	0
3	2152	6.342365525005	0
3	2161	6.342845525005	0
3	2161	6.342845525005	0
3	2190	6.442365525684	0
3	2190	6.442365525684	0
3	2199	6.442573525684	0
3	2199	6.442573525684	0
3	2217	6.471518936497	0
3	2217	6.471518936497	0
3	2223	6.471726936497	0
3	2223	6.471726936497	0
3	2257	6.542365526425	0
3	2257	6.542365526425	0
3	2266	6.542573526425	0
3	2266	6.542573526425	0
3	2289	6.577815775636	0
3	2289	6.577815775636	0
3	2302	6.578295775636	0
3	2302	6.578295775636	0
3	2324	6.638344219327	0
3	2324	6.638344219327	0
3	2337	6.638824219327	0
3	2337	6.638824219327	0
3	2352	6.642365527236	0
3	2352	6.642365527236	0
3	2361	6.642573527236	0
3	2361	6.642573527236	0
3	2391	6.742365528101	0
3	2391	6.742365528101	0
3	2400	6.742573528101	0
3	2400	6.742573528101	0
3	2429	6.842365528523	0
3	2429	6.842365528523	0
3	2438	6.842845528523	0
3	2438	6.842845528523	0
3	2456	6.871518936497	0
3	2456	6.871518936497	0
3	2462	6.871998936497	0
3	2462	6.871998936497	0
3	2496	6.942365528977	0
3	2496	6.942365528977	0
3	2505	6.942573528977	0
3	2505	6.942573528977	0
3	2534	7.042365529453	0
3	2534	7.042365529453	0
3	2543	7.042573529453	0
3	2543	7.042573529453	0
3	2572	7.142365529946	0
3	2572	7.142365529946	0
3	2581	7.142573529946	0
3	2581	7.142573529946	0
3	2610	7.238344230561	0
3	2610	7.238344230561	0
3	2623	7.238824230561	0
3	2623	7.238824230561	0
3	2638	7.242365530469	0
3	2638	7.242365530469	0
3	2647	7.242573530469	0
3	2647	7.242573530469	0
3	2666	7.271518936497	0
3	2666	7.271518936497	0
3	2672	7.271726936497	0
3	2672	7.271726936497	0
3	2706	7.342365531014	0
3	2706	7.342365531014	0
3	2715	7.342845531014	0
3	2715	7.342845531014	0
3	2744	7.442365531546	0
3	2744	7.442365531546	0
3	2753	7.442573531546	0
3	2753	7.442573531546	0
3	2776	7.477815777161	0
3	2776	7.477815777161	0
3	2789	7.478295777161	0
3	2789	7.478295777161	0
3	2811	7.542365536662	0
3	2811	7.542365536662	0
3	2820	7.542573536662	0
3	2820	7.542573536662	0
3	2849	7.642365537639	0
3	2849	7.642365537639	0
3	2858	7.642573537639	0
3	2858	7.642573537639	0
3	2885	7.771518936497	0
3	2885	7.771518936497	0
3	2891	7.771998936497	0
3	2891	7.771998936497	0
3	2925	7.838344246458	0
3	2925	7.838344246458	0
3	2938	7.838824246458	0
3	2938	7.838824246458	0
3	2972	8.038344251243	0
3	2972	8.038344251243	0
3	2985	8.038552251243	0
3	2985	8.038552251243	0
3	3000	8.042365539741	0
3	3000	8.042365539741	0
3	3009	8.042845539741	0
3	3009	8.042845539741	0
3	3048	8.238344256378	0
3	3048	8.238344256378	0
3	3061	8.238552256378	0
3	3061	8.238552256378	0
3	3075	8.271518936497	0
3	3075	8.271518936497	0
3	3081	8.271998936497	0
3	3081	8.271998936497	0
3	3118	8.377815789735	0
3	3118	8.377815789735	0
3	3131	8.378295789735	0
3	3131	8.378295789735	0
3	3153	8.438344260359	0
3	3153	8.438344260359	0
3	3166	8.438824260359	0
3	3166	8.438824260359	0
3	3181	8.442365541852	0
3	3181	8.442365541852	0
3	3190	8.442573541852	0
3	3190	8.442573541852	0
3	3220	8.538344261695	0
3	3220	8.538344261695	0
3	3233	8.538552261695	0
3	3233	8.538552261695	0
3	3258	8.638344263059	0
3	3258	8.638344263059	0
3	3271	8.638552263059	0
3	3271	8.638552263059	0
3	3296	8.738344264446	0
3	3296	8.738344264446	0
3	3309	8.738552264446	0
3	3309	8.738552264446	0
3	3323	8.771518936497	0
3	3323	8.771518936497	0
3	3329	8.771998936497	0
3	3329	8.771998936497	0
3	3363	8.838344265856	0
3	3363	8.838344265856	0
3	3376	8.838552265856	0
3	3376	8.838552265856	0
3	3391	8.842365543991	0
3	3391	8.842365543991	0
3	3400	8.842845543991	0
3	3400	8.842845543991	0
3	3430	8.9383442668	0
3	3430	8.9383442668	0
3	3443	8.9388242668	0
3	3443	8.9388242668	0
3	3468	9.03834426769	0
3	3468	9.03834426769	0
3	3481	9.03855226769	0
3	3481	9.03855226769	0
3	3506	9.138344268576	0
3	3506	9.138344268576	0
3	3519	9.138552268576	0
3	3519	9.138552268576	0
3	3538	9.177815809908	0
3	3538	9.177815809908	0
3	3551	9.178295809908	0
3	3551	9.178295809908	0
3	3573	9.238344269459	0
3	3573	9.238344269459	0
3	3586	9.238552269459	0
3	3586	9.238552269459	0
3	3601	9.242365546107	0
3	3601	9.242365546107	0
3	3610	9.242573546107	0
3	3610	9.242573546107	0
3	3629	9.271518936497	0
3	3629	9.271518936497	0
3	3635	9.271998936497	0
3	3635	9.271998936497	0
3	3669	9.338344270342	0
3	3669	9.338344270342	0
3	3682	9.338552270342	0
3	3682	9.338552270342	0
3	3707	9.438344271219	0
3	3707	9.438344271219	0
3	3720	9.438824271219	0
3	3720	9.438824271219	0
3	3745	9.538344272088	0
3	3745	9.538344272088	0
3	3758	9.538552272088	0
3	3758	9.538552272088	0
3	3783	9.63834427703	0
3	3783	9.63834427703	0
3	3796	9.63855227703	0
3	3796	9.63855227703	0
3	3810	9.671518936497	0
3	3810	9.671518936497	0
3	3816	9.671726936497	0
3	3816	9.671726936497	0
3	3850	9.738344278846	0
3	3850	9.738344278846	0
3	3863	9.738552278846	0
3	3863	9.738552278846	0
3	3878	9.742365548671	0
3	3878	9.742365548671	0
3	3887	9.742845548671	0
3	3887	9.742845548671	0
3	3917	9.838344279707	0
3	3917	9.838344279707	0
3	3930	9.838552279707	0
3	3930	9.838552279707	0
3	3949	9.8778158329	0
3	3949	9.8778158329	0
3	3962	9.8782958329	0
3	3962	9.8782958329	0
3	3991	10.071518936497	0
3	3991	10.071518936497	0
3	3997	10.071998936497	0
3	3997	10.071998936497	0
3	4040	10.23834428323	0
3	4040	10.23834428323	0
3	4053	10.23882428323	0
3	4053	10.23882428323	0
3	4068	10.24236555137	0
3	4068	10.24236555137	0
3	4077	10.24284555137	0
3	4077	10.24284555137	0
3	4114	10.471518936497	0
3	4114	10.471518936497	0
3	4120	10.471726936497	0
3	4120	10.471726936497	0
3	4157	10.577815858633	0
3	4157	10.577815858633	0
3	4170	10.578295858633	0
3	4170	10.578295858633	0
3	4192	10.638344286813	0
3	4192	10.638344286813	0
3	4205	10.638552286813	0
3	4205	10.638552286813	0
3	4230	10.742365554089	0
3	4230	10.742365554089	0
3	4239	10.742845554089	0
3	4239	10.742845554089	0
3	4266	10.871518936497	0
3	4266	10.871518936497	0
3	4272	10.871998936497	0
3	4272	10.871998936497	0
3	4315	11.038344290358	0
3	4315	11.038344290358	0
3	4328	11.038824290358	0
3	4328	11.038824290358	0
3	4347	11.077815878	0
3	4347	11.077815878	0
3	4360	11.078295878	0
3	4360	11.078295878	0
3	4391	11.242365556744	0
3	4391	11.242365556744	0
3	4400	11.242845556744	0
3	4400	11.242845556744	0
3	4418	11.271518936497	0
3	4418	11.271518936497	0
3	4424	11.271726936497	0
3	4424	11.271726936497	0
3	4451	11.277815884619	0
3	4451	11.277815884619	0
3	4464	11.278023884619	0
3	4464	11.278023884619	0
3	4496	11.438344293832	0
3	4496	11.438344293832	0
3	4509	11.438552293832	0
3	4509	11.438552293832	0
3	4528	11.477815891382	0
3	4528	11.477815891382	0
3	4541	11.478023891382	0
3	4541	11.478023891382	0
3	4570	11.671518936497	0
3	4570	11.671518936497	0
3	4576	11.671998936497	0
3	4576	11.671998936497	0
3	4603	11.677815896859	0
3	4603	11.677815896859	0
3	4616	11.678295896859	0
3	4616	11.678295896859	0
3	4639	11.742365559405	0
3	4639	11.742365559405	0
3	4648	11.742845559405	0
3	4648	11.742845559405	0
3	4671	11.77781589884	0
3	4671	11.77781589884	0
3	4684	11.77802389884	0
3	4684	11.77802389884	0
3	4709	11.877815900835	0
3	4709	11.877815900835	0
3	4722	11.878023900835	0
3	4722	11.878023900835	0
3	4744	11.938344298095	0
3	4744	11.938344298095	0
3	4757	11.938824298095	0
3	4757	11.938824298095	0
3	4776	11.977815902828	0
3	4776	11.977815902828	0
3	4789	11.978023902828	0
3	4789	11.978023902828	0
3	4809	12.071518936497	0
3	4809	12.071518936497	0
3	4815	12.071726936497	0
3	4815	12.071726936497	0
3	4842	12.077815904818	0
3	4842	12.077815904818	0
3	4855	12.078023904818	0
3	4855	12.078023904818	0
3	4878	12.142365561391	0
3	4878	12.142365561391	0
3	4887	12.142573561391	0
3	4887	12.142573561391	0
3	4910	12.177815906232	0
3	4910	12.177815906232	0
3	4923	12.178295906232	0
3	4923	12.178295906232	0
3	4948	12.27781590763	0
3	4948	12.27781590763	0
3	4961	12.27802390763	0
3	4961	12.27802390763	0
3	4986	12.377815909013	0
3	4986	12.377815909013	0
3	4999	12.378023909013	0
3	4999	12.378023909013	0
3	5021	12.438344301979	0
3	5021	12.438344301979	0
3	5034	12.438824301979	0
3	5034	12.438824301979	0
3	5048	12.471518936497	0
3	5048	12.471518936497	0
3	5054	12.471998936497	0
3	5054	12.471998936497	0
3	5081	12.477815910381	0
3	5081	12.477815910381	0
3	5094	12.478023910381	0
3	5094	12.478023910381	0
3	5117	12.54236556318	0
3	5117	12.54236556318	0
3	5126	12.54284556318	0
3	5126	12.54284556318	0
3	5149	12.577815911721	0
3	5149	12.577815911721	0
3	5162	12.578023911721	0
3	5162	12.578023911721	0
3	5187	12.677815913051	0
3	5187	12.677815913051	0
3	5200	12.678295913051	0
3	5200	12.678295913051	0
3	5225	12.777815914345	0
3	5225	12.777815914345	0
3	5238	12.778023914345	0
3	5238	12.778023914345	0
3	5258	12.871518936497	0
3	5258	12.871518936497	0
3	5264	12.871726936497	0
3	5264	12.871726936497	0
3	5291	12.877815920658	0
3	5291	12.877815920658	0
3	5304	12.878023920658	0
3	5304	12.878023920658	0
3	5327	12.938344305301	0
3	5327	12.938344305301	0
3	5340	12.938824305301	0
3	5340	12.938824305301	0
3	5355	12.942365564953	0
3	5355	12.942365564953	0
3	5364	12.942573564953	0
3	5364	12.942573564953	0
3	5388	12.977815921909	0
3	5388	12.977815921909	0
3	5401	12.978023921909	0
3	5401	12.978023921909	0
3	5439	13.271518936497	0
3	5439	13.271518936497	0
3	5445	13.271998936497	0
3	5445	13.271998936497	0
3	5479	13.342365566786	0
3	5479	13.342365566786	0
3	5488	13.342845566786	0
3	5488	13.342845566786	0
3	5511	13.377815926701	0
3	5511	13.377815926701	0
3	5524	13.378295926701	0
3	5524	13.378295926701	0
3	5546	13.438344308138	0
3	5546	13.438344308138	0
3	5559	13.438824308138	0
3	5559	13.438824308138	0
3	5591	13.671518936497	0
3	5591	13.671518936497	0
3	5597	13.671726936497	0
3	5597	13.671726936497	0
3	5631	13.742365568577	0
3	5631	13.742365568577	0
3	5640	13.742573568577	0
3	5640	13.742573568577	0
3	5663	13.777815931141	0
3	5663	13.777815931141	0
3	5676	13.778023931141	0
3	5676	13.778023931141	0
3	5698	13.838344310021	0
3	5698	13.838344310021	0
3	5711	13.838552310021	0
3	5711	13.838552310021	0
3	5743	14.071518936497	0
3	5743	14.071518936497	0
3	5749	14.071998936497	0
3	5749	14.071998936497	0
3	5783	14.142365570373	0
3	5783	14.142365570373	0
3	5792	14.142845570373	0
3	5792	14.142845570373	0
3	5815	14.177815935283	0
3	5815	14.177815935283	0
3	5828	14.178295935283	0
3	5828	14.178295935283	0
3	5850	14.238344311632	0
3	5850	14.238344311632	0
3	5863	14.238824311632	0
3	5863	14.238824311632	0
3	5895	14.471518936497	0
3	5895	14.471518936497	0
3	5901	14.471726936497	0
3	5901	14.471726936497	0
3	5935	14.542365572145	0
3	5935	14.542365572145	0
3	5944	14.542573572145	0
3	5944	14.542573572145	0
3	5967	14.577815939093	0
3	5967	14.577815939093	0
3	5980	14.578023939093	0
3	5980	14.578023939093	0
3	6002	14.638344312926	0
3	6002	14.638344312926	0
3	6015	14.638552312926	0
3	6015	14.638552312926	0
3	6047	14.871518936497	0
3	6047	14.871518936497	0
3	6053	14.871998936497	0
3	6053	14.871998936497	0
3	6087	14.942365573936	0
3	6087	14.942365573936	0
3	6096	14.942845573936	0
3	6096	14.942845573936	0
3	6125	15.038344313916	0
3	6125	15.038344313916	0
3	6138	15.038824313916	0
3	6138	15.038824313916	0
3	6157	15.077815943361	0
3	6157	15.077815943361	0
3	6170	15.078295943361	0
3	6170	15.078295943361	0
3	6199	15.271518936497	0
3	6199	15.271518936497	0
3	6205	15.271726936497	0
3	6205	15.271726936497	0
3	6239	15.342365575718	0
3	6239	15.342365575718	0
3	6248	15.342573575718	0
3	6248	15.342573575718	0
3	6277	15.438344314893	0
3	6277	15.438344314893	0
3	6290	15.438552314893	0
3	6290	15.438552314893	0
3	6318	15.577815947145	0
3	6318	15.577815947145	0
3	6331	15.578295947145	0
3	6331	15.578295947145	0
3	6351	15.671518936497	0
3	6351	15.671518936497	0
3	6357	15.671998936497	0
3	6357	15.671998936497	0
3	6391	15.742365577516	0
3	6391	15.742365577516	0
3	6400	15.742845577516	0
3	6400	15.742845577516	0
3	6429	15.838344315913	0
3	6429	15.838344315913	0
3	6442	15.838824315913	0
3	6442	15.838824315913	0
3	6474	16.071518936497	0
3	6474	16.071518936497	0
3	6480	16.071726936497	0
3	6480	16.071726936497	0
3	6507	16.077815950404	0
3	6507	16.077815950404	0
3	6520	16.078295950404	0
3	6520	16.078295950404	0
3	6543	16.142365579302	0
3	6543	16.142365579302	0
3	6552	16.142573579302	0
3	6552	16.142573579302	0
3	6581	16.238344316996	0
3	6581	16.238344316996	0
3	6594	16.238552316996	0
3	6594	16.238552316996	0
3	6626	16.471518936497	0
3	6626	16.471518936497	0
3	6632	16.471998936497	0
3	6632	16.471998936497	0
3	6666	16.542365581086	0
3	6666	16.542365581086	0
3	6675	16.542845581086	0
3	6675	16.542845581086	0
3	6698	16.577815953109	0
3	6698	16.577815953109	0
3	6711	16.578295953109	0
3	6711	16.578295953109	0
3	6733	16.638344318181	0
3	6733	16.638344318181	0
3	6746	16.638824318181	0
3	6746	16.638824318181	0
3	6778	16.871518936497	0
3	6778	16.871518936497	0
3	6784	16.871726936497	0
3	6784	16.871726936497	0
3	6818	16.942365582892	0
3	6818	16.942365582892	0
3	6827	16.942573582892	0
3	6827	16.942573582892	0
3	6850	16.977815954904	0
3	6850	16.977815954904	0
3	6863	16.978023954904	0
3	6863	16.978023954904	0
3	6885	17.038344319453	0
3	6885	17.038344319453	0
3	6898	17.038552319453	0
3	6898	17.038552319453	0
3	6930	17.271518936497	0
3	6930	17.271518936497	0
3	6936	17.271998936497	0
3	6936	17.271998936497	0
3	6970	17.34236558468	0
3	6970	17.34236558468	0
3	6979	17.34284558468	0
3	6979	17.34284558468	0
3	7002	17.377815956369	0
3	7002	17.377815956369	0
3	7015	17.378295956369	0
3	7015	17.378295956369	0
3	7037	17.438344320789	0
3	7037	17.438344320789	0
3	7050	17.438824320789	0
3	7050	17.438824320789	0
3	7082	17.671518936497	0
3	7082	17.671518936497	0
3	7088	17.671726936497	0
3	7088	17.671726936497	0
3	7122	17.742365586464	0
3	7122	17.742365586464	0
3	7131	17.742573586464	0
3	7131	17.742573586464	0
3	7154	17.777815957562	0
3	7154	17.777815957562	0
3	7167	17.778023957562	0
3	7167	17.778023957562	0
3	7189	17.838344322152	0
3	7189	17.838344322152	0
3	7202	17.838552322152	0
3	7202	17.838552322152	0
3	7234	18.071518936497	0
3	7234	18.071518936497	0
3	7240	18.071998936497	0
3	7240	18.071998936497	0
3	7274	18.142365588237	0
3	7274	18.142365588237	0
3	7283	18.142845588237	0
3	7283	18.142845588237	0
3	7306	18.177815958454	0
3	7306	18.177815958454	0
3	7319	18.178295958454	0
3	7319	18.178295958454	0
3	7341	18.238344323547	0
3	7341	18.238344323547	0
3	7354	18.238824323547	0
3	7354	18.238824323547	0
3	7386	18.471518936497	0
3	7386	18.471518936497	0
3	7392	18.471726936497	0
3	7392	18.471726936497	0
3	7426	18.542365590023	0
3	7426	18.542365590023	0
3	7435	18.542573590023	0
3	7435	18.542573590023	0
3	7458	18.577815959069	0
3	7458	18.577815959069	0
3	7471	18.578023959069	0
3	7471	18.578023959069	0
3	7493	18.638344325004	0
3	7493	18.638344325004	0
3	7506	18.638552325004	0
3	7506	18.638552325004	0
3	7538	18.871518936497	0
3	7538	18.871518936497	0
3	7544	18.871998936497	0
3	7544	18.871998936497	0
3	7578	18.942365591825	0
3	7578	18.942365591825	0
3	7587	18.942845591825	0
3	7587	18.942845591825	0
3	7610	18.977815959332	0
3	7610	18.977815959332	0
3	7623	18.978295959332	0
3	7623	18.978295959332	0
3	7645	19.038344326522	0
3	7645	19.038344326522	0
3	7658	19.038824326522	0
3	7658	19.038824326522	0
3	7690	19.271518936497	0
3	7690	19.271518936497	0
3	7696	19.271726936497	0
3	7696	19.271726936497	0
3	7730	19.342365593613	0
3	7730	19.342365593613	0
3	7739	19.342573593613	0
3	7739	19.342573593613	0
3	7762	19.37781595928	0
3	7762	19.37781595928	0
3	7775	19.37802395928	0
3	7775	19.37802395928	0
3	7797	19.438344328038	0
3	7797	19.438344328038	0
3	7810	19.438552328038	0
3	7810	19.438552328038	0
3	7842	19.671518936497	0
3	7842	19.671518936497	0
3	7848	19.671998936497	0
3	7848	19.671998936497	0
3	7882	19.742365595415	0
3	7882	19.742365595415	0
3	7891	19.742845595415	0
3	7891	19.742845595415	0
3	7914	19.777815958966	0
3	7914	19.777815958966	0
3	7927	19.778295958966	0
3	7927	19.778295958966	0
3	7949	19.838344329621	0
3	7949	19.838344329621	0
3	7962	19.838824329621	0
3	7962	19.838824329621	0
3	7994	20.071518936497	0
3	7994	20.071518936497	0
3	8000	20.071726936497	0
3	8000	20.071726936497	0
3	8034	20.142365597197	0
3	8034	20.142365597197	0
3	8043	20.142573597197	0
3	8043	20.142573597197	0
3	8066	20.177815958631	0
3	8066	20.177815958631	0
3	8079	20.178023958631	0
3	8079	20.178023958631	0
3	8101	20.238344331216	0
3	8101	20.238344331216	0
3	8114	20.238552331216	0
3	8114	20.238552331216	0
3	8146	20.471518936497	0
3	8146	20.471518936497	0
3	8152	20.471998936497	0
3	8152	20.471998936497	0
3	8186	20.542365598978	0
3	8186	20.542365598978	0
3	8195	20.542845598978	0
3	8195	20.542845598978	0
3	8218	20.577815958287	0
3	8218	20.577815958287	0
3	8231	20.578295958287	0
3	8231	20.578295958287	0
3	8253	20.638344332821	0
3	8253	20.638344332821	0
3	8266	20.638824332821	0
3	8266	20.638824332821	0
3	8298	20.871518936497	0
3	8298	20.871518936497	0
3	8304	20.871726936497	0
3	8304	20.871726936497	0
3	8338	20.942365600785	0
3	8338	20.942365600785	0
3	8347	20.942573600785	0
3	8347	20.942573600785	0
3	8370	20.977815957976	0
3	8370	20.977815957976	0
3	8383	20.978023957976	0
3	8383	20.978023957976	0
3	8405	21.038344334473	0
3	8405	21.038344334473	0
3	8418	21.038552334473	0
3	8418	21.038552334473	0
3	8450	21.271518936497	0
3	8450	21.271518936497	0
3	8456	21.271998936497	0
3	8456	21.271998936497	0
3	8490	21.342365602554	0
3	8490	21.342365602554	0
3	8499	21.342845602554	0
3	8499	21.342845602554	0
3	8522	21.377815957634	0
3	8522	21.377815957634	0
3	8535	21.378295957634	0
3	8535	21.378295957634	0
3	8557	21.438344336098	0
3	8557	21.438344336098	0
3	8570	21.438824336098	0
3	8570	21.438824336098	0
3	8602	21.671518936497	0
3	8602	21.671518936497	0
3	8608	21.671726936497	0
3	8608	21.671726936497	0
3	8642	21.742365604347	0
3	8642	21.742365604347	0
3	8651	21.742573604347	0
3	8651	21.742573604347	0
3	8674	21.777815957296	0
3	8674	21.777815957296	0
3	8687	21.778023957296	0
3	8687	21.778023957296	0
3	8709	21.838344337756	0
3	8709	21.838344337756	0
3	8722	21.838552337756	0
3	8722	21.838552337756	0
3	8754	22.071518936497	0
3	8754	22.071518936497	0
3	8760	22.071998936497	0
3	8760	22.071998936497	0
3	8794	22.142365606121	0
3	8794	22.142365606121	0
3	8803	22.142845606121	0
3	8803	22.142845606121	0
3	8826	22.177815956952	0
3	8826	22.177815956952	0
3	8839	22.178295956952	0
3	8839	22.178295956952	0
3	8861	22.23834433945	0
3	8861	22.23834433945	0
3	8874	22.23882433945	0
3	8874	22.23882433945	0
3	8906	22.471518936497	0
3	8906	22.471518936497	0
3	8912	22.471726936497	0
3	8912	22.471726936497	0
3	8946	22.542365607901	0
3	8946	22.542365607901	0
3	8955	22.542573607901	0
3	8955	22.542573607901	0
3	8978	22.577815956626	0
3	8978	22.577815956626	0
3	8991	22.578023956626	0
3	8991	22.578023956626	0
3	9013	22.638344341146	0
3	9013	22.638344341146	0
3	9026	22.638552341146	0
3	9026	22.638552341146	0
3	9058	22.871518936497	0
3	9058	22.871518936497	0
3	9064	22.871998936497	0
3	9064	22.871998936497	0
3	9098	22.942365609688	0
3	9098	22.942365609688	0
3	9107	22.942845609688	0
3	9107	22.942845609688	0
3	9130	22.977815956287	0
3	9130	22.977815956287	0
3	9143	22.978295956287	0
3	9143	22.978295956287	0
3	9165	23.038344342672	0
3	9165	23.038344342672	0
3	9178	23.038824342672	0
3	9178	23.038824342672	0
3	9201	23.171518936497	0
3	9201	23.171518936497	0
3	9207	23.171726936497	0
3	9207	23.171726936497	0
3	9250	23.34236560996	0
3	9250	23.34236560996	0
3	9259	23.34257360996	0
3	9259	23.34257360996	0
3	9277	23.371518936497	0
3	9277	23.371518936497	0
3	9283	23.371998936497	0
3	9283	23.371998936497	0
3	9310	23.377815954445	0
3	9310	23.377815954445	0
3	9323	23.378023954445	0
3	9323	23.378023954445	0
3	9346	23.438344342284	0
3	9346	23.438344342284	0
3	9359	23.438552342284	0
3	9359	23.438552342284	0
3	9382	23.571518936497	0
3	9382	23.571518936497	0
3	9388	23.571726936497	0
3	9388	23.571726936497	0
3	9431	23.742365607842	0
3	9431	23.742365607842	0
3	9440	23.742845607842	0
3	9440	23.742845607842	0
3	9458	23.771518936497	0
3	9458	23.771518936497	0
3	9464	23.771726936497	0
3	9464	23.771726936497	0
3	9491	23.777815950218	0
3	9491	23.777815950218	0
3	9504	23.778295950218	0
3	9504	23.778295950218	0
3	9527	23.838344339478	0
3	9527	23.838344339478	0
3	9540	23.838824339478	0
3	9540	23.838824339478	0
3	9563	23.971518936497	0
3	9563	23.971518936497	0
3	9569	23.971998936497	0
3	9569	23.971998936497	0
3	9612	24.142365603436	0
3	9612	24.142365603436	0
3	9621	24.142573603436	0
3	9621	24.142573603436	0
3	9639	24.171518936497	0
3	9639	24.171518936497	0
3	9645	24.171726936497	0
3	9645	24.171726936497	0
3	9672	24.177815943691	0
3	9672	24.177815943691	0
3	9685	24.178023943691	0
3	9685	24.178023943691	0
3	9708	24.238344334687	0
3	9708	24.238344334687	0
3	9721	24.238552334687	0
3	9721	24.238552334687	0
3	9744	24.371518936497	0
3	9744	24.371518936497	0
3	9750	24.371726936497	0
3	9750	24.371726936497	0
3	9793	24.542365597971	0
3	9793	24.542365597971	0
3	9802	24.542845597971	0
3	9802	24.542845597971	0
3	9820	24.571518936497	0
3	9820	24.571518936497	0
3	9826	24.571998936497	0
3	9826	24.571998936497	0
3	9853	24.577815936086	0
3	9853	24.577815936086	0
3	9866	24.578295936086	0
3	9866	24.578295936086	0
3	9889	24.638344328698	0
3	9889	24.638344328698	0
3	9902	24.638824328698	0
3	9902	24.638824328698	0
3	9916	24.671518936497	0
3	9916	24.671518936497	0
3	9922	24.671726936497	0
3	9922	24.671726936497	0
3	9954	24.771518936497	0
3	9954	24.771518936497	0
3	9960	24.771726936497	0
3	9960	24.771726936497	0
3	9992	24.871518936497	0
3	9992	24.871518936497	0
3	9998	24.871726936497	0
3	9998	24.871726936497	0
3	10032	24.942365589531	0
3	10032	24.942365589531	0
3	10041	24.942573589531	0
3	10041	24.942573589531	0
3	10059	24.971518936497	0
3	10059	24.971518936497	0
3	10065	24.971726936497	0
3	10065	24.971726936497	0
3	10092	24.977815925283	0
3	10092	24.977815925283	0
3	10105	24.978023925283	0
3	10105	24.978023925283	0
3	10128	25.038344318749	0
3	10128	25.038344318749	0
3	10141	25.038552318749	0
3	10141	25.038552318749	0
3	10155	25.071518936497	0
3	10155	25.071518936497	0
3	10161	25.071998936497	0
3	10161	25.071998936497	0
3	10193	25.171518936497	0
3	10193	25.171518936497	0
3	10199	25.171726936497	0
3	10199	25.171726936497	0
3	10231	25.271518936497	0
3	10231	25.271518936497	0
3	10237	25.271726936497	0
3	10237	25.271726936497	0
3	10271	25.342365577803	0
3	10271	25.342365577803	0
3	10280	25.342845577803	0
3	10280	25.342845577803	0
3	10298	25.371518936497	0
3	10298	25.371518936497	0
3	10304	25.371726936497	0
3	10304	25.371726936497	0
3	10331	25.377815910679	0
3	10331	25.377815910679	0
3	10344	25.378295910679	0
3	10344	25.378295910679	0
3	10367	25.438344306185	0
3	10367	25.438344306185	0
3	10380	25.438824306185	0
3	10380	25.438824306185	0
3	10394	25.471518936497	0
3	10394	25.471518936497	0
3	10400	25.471726936497	0
3	10400	25.471726936497	0
3	10432	25.571518936497	0
3	10432	25.571518936497	0
3	10438	25.571998936497	0
3	10438	25.571998936497	0
3	10470	25.671518936497	0
3	10470	25.671518936497	0
3	10476	25.671726936497	0
3	10476	25.671726936497	0
3	10510	25.742365565273	0
3	10510	25.742365565273	0
3	10519	25.742573565273	0
3	10519	25.742573565273	0
3	10537	25.771518936497	0
3	10537	25.771518936497	0
3	10543	25.771726936497	0
3	10543	25.771726936497	0
3	10570	25.777815895189	0
3	10570	25.777815895189	0
3	10583	25.778023895189	0
3	10583	25.778023895189	0
3	10606	25.838344293032	0
3	10606	25.838344293032	0
3	10619	25.838552293032	0
3	10619	25.838552293032	0
3	10633	25.871518936497	0
3	10633	25.871518936497	0
3	10639	25.871726936497	0
3	10639	25.871726936497	0
3	10691	26.142365553462	0
3	10691	26.142365553462	0
3	10700	26.142845553462	0
3	10700	26.142845553462	0
3	10718	26.171518936497	0
3	10718	26.171518936497	0
3	10724	26.171998936497	0
3	10724	26.171998936497	0
3	10751	26.177815880016	0
[...]
61	16813	43.071999100734	2546248239
61	16877	43.238824193473	1171049868
61	16998	43.938824194757	1171049868
61	17037	43.942845601752	3638918503
61	17106	44.071999092806	2546248239
61	17132	44.138552194537	1171049868
61	17208	44.338552194051	1171049868
61	17255	44.538824193289	1171049868
61	17331	44.738552192223	1171049868
61	17407	44.938552191292	1171049868
61	17446	44.942845596923	3638918503
61	17486	45.071999088656	2546248239
61	17512	45.138824190522	1171049868
61	17588	45.338552189884	1171049868
61	17740	45.942845595851	3638918503
61	17779	46.071999087695	2546248239
61	17814	46.238824188391	1171049868
61	17946	46.942845595043	3638918503
61	17973	47.038824188353	1171049868
61	18014	47.071999086799	2546248239
61	18132	47.838824188913	1171049868
61	18181	47.942845593285	3638918503
61	18220	48.071999084933	2546248239
61	18320	48.638824192364	1171049868
61	18416	48.942845594226	3638918503
61	18455	49.071999086177	2546248239
61	18537	49.4388241973	1171049868
61	18651	49.942845594103	3638918503
61	18690	50.071999085834	2546248239
61	18725	50.238824202166	1171049868
61	18857	50.942845591883	3638918503
61	18884	51.038824206915	1171049868
61	18925	51.071999083438	2546248239
61	19039	51.738824210596	1171049868
61	19092	51.94284558766	3638918503
61	19124	52.038552211182	1171049868
61	19160	52.071999079016	2546248239
61	19200	52.238824210755	1171049868
61	19276	52.438552210127	1171049868
61	19323	52.638552209491	1171049868
61	19370	52.838824208858	1171049868
61	19414	52.942845581262	3638918503
61	19453	53.071999072389	2546248239
61	19576	53.838824204909	1171049868
61	19620	53.942845572696	3638918503
61	19688	54.071999063641	2546248239
61	19811	54.838824198915	1171049868
61	19855	54.942845564207	3638918503
61	19894	55.071999055424	2546248239
61	20075	55.838824196196	1171049868
61	20119	55.942845560874	3638918503
61	20187	56.07199905316	2546248239
61	20397	56.838824204714	1171049868
61	20441	56.942845569307	3638918503
61	20509	57.071999062212	2546248239
61	20603	57.838824215122	1171049868
61	20647	57.942845579253	3638918503
61	20715	58.071999072134	2546248239
61	20814	58.838824225321	1171049868
61	20853	58.942845589193	3638918503
61	20921	59.071999082056	2546248239
61	21020	59.838824235395	1171049868
61	21059	59.942845599135	3638918503
61	21127	60.071999091989	2546248239
61	21226	60.838824245401	1171049868
61	21265	60.942845609056	3638918503
61	21333	61.071999101915	2546248239
61	21432	61.838824254842	1171049868
61	21471	61.942845618285	3638918503
61	21539	62.071999110959	2546248239
61	21667	62.838824262085	1171049868
61	21706	62.942845625325	3638918503
61	21745	63.071999117791	2546248239
61	21873	63.838824267362	1171049868
61	21912	63.942845630364	3638918503
61	21951	64.071999122648	2546248239
61	22079	64.838824270556	1171049868
61	22118	64.942845633367	3638918503
61	22157	65.071999125439	2546248239
61	22285	65.83882427176	1171049868
61	22324	65.942845634358	3638918503
61	22392	66.071999126264	2546248239
61	22520	66.838824270843	1171049868
61	22559	66.942845633215	3638918503
61	22598	67.071999124903	2546248239
61	22726	67.838824267857	1171049868
61	22765	67.942845630063	3638918503
61	22804	68.071999121541	2546248239
61	22932	68.838824262996	1171049868
61	22971	68.942845624987	3638918503
61	23010	69.071999116246	2546248239
61	23138	69.838824256053	1171049868
61	23177	69.942845617826	3638918503
61	23245	70.071999108882	2546248239
61	23373	70.838824247164	1171049868
61	23412	70.942845608785	3638918503
61	23451	71.071999099638	2546248239
61	23579	71.83882423638	1171049868
61	23618	71.9428455978	3638918503
61	23657	72.071999088425	2546248239
61	23814	72.838824223484	1171049868
61	23853	72.942845584675	3638918503
61	23892	73.071999075086	2546248239
61	24044	73.838824209824	1171049868
61	24088	73.942845571277	3638918503
61	24127	74.071999062043	2546248239
61	24279	74.838824200466	1171049868
61	24323	74.942845562336	3638918503
61	24391	75.071999053506	2546248239
61	24543	75.838824194689	1171049868
61	24587	75.942845556858	3638918503
61	24626	76.071999048325	2546248239
61	24749	76.838824191313	1171049868
61	24793	76.942845553682	3638918503
61	24832	77.071999045315	2546248239
61	24955	77.838824189422	1171049868
61	24999	77.942845551879	3638918503
61	25038	78.071999043628	2546248239
61	25161	78.838824188368	1171049868
61	25205	78.942845550895	3638918503
61	25244	79.0719990427	2546248239
61	25367	79.838824187799	1171049868
61	25411	79.942845550357	3638918503
61	25450	80.071999042204	2546248239
61	25573	80.838824187499	1171049868
61	25617	80.942845550095	3638918503
61	25656	81.071999041951	2546248239
61	25779	81.838824187355	1171049868
61	25823	81.942845549944	3638918503
61	25862	82.07199904182	2546248239
61	25985	82.838824187268	1171049868
61	26029	82.942845549881	3638918503
61	26068	83.071999041743	2546248239
61	26191	83.838824187246	1171049868
61	26235	83.942845549832	3638918503
61	26274	84.071999041709	2546248239
61	26397	84.838824187219	1171049868
61	26441	84.942845549818	3638918503
61	26480	85.071999041688	2546248239
61	26603	85.838824187198	1171049868
61	26647	85.942845549796	3638918503
61	26686	86.07199904166	2546248239
61	26809	86.838824187215	1171049868
61	26853	86.942845549807	3638918503
61	26892	87.071999041694	2546248239
61	27015	87.838824187198	1171049868
61	27052	87.942845549777	3638918503
61	27155	88.838824187415	1171049868
61	27183	88.842845550503	3638918503
61	27293	89.742845552196	3638918503
61	27317	89.83882418818	1171049868
61	27418	90.542845554255	3638918503
61	27447	90.738824189252	1171049868
61	27526	91.638824190532	1171049868
61	27605	92.538824191942	1171049868
62	683	3.138824177256	32156
62	731	3.242845542651	32256
62	761	3.271727042387	32256
62	836	3.4425735448	32456
62	866	3.471999045176	32456
62	941	3.642573547302	32656
62	971	3.671727048004	32656
62	1035	3.838824183281	32856
62	1074	3.8428455498	32856
62	1105	3.871727050327	32856
62	1181	4.071999052675	33056
62	1228	4.271727055087	33256
62	1266	4.371727055047	33356
62	1304	4.471727054999	33456
62	1330	4.53882418921	33556
62	1369	4.542845558492	33556
62	1400	4.571999054979	33556
62	1438	4.671727054988	33656
62	1476	4.771727055026	33756
62	1543	4.871727053673	33856
62	1581	4.971727052357	33956
62	1619	5.071999051087	34056
62	1656	5.142845565507	34156
62	1686	5.171727049861	34156
62	1712	5.238824195112	34256
62	1753	5.271727048686	34256
62	1791	5.37172704757	34356
62	1829	5.471727046426	34456
62	1867	5.571999045629	34556
62	1905	5.671727044331	34656
62	1971	5.742845571436	34756
62	2012	5.938824200706	34956
62	2046	5.94257357305	34956
62	2086	6.071999039889	35056
62	2123	6.14257357471	35156
62	2170	6.342845575191	35356
62	2208	6.442573574815	35456
62	2238	6.471727036913	35456
62	2275	6.542573574494	35556
62	2336	6.63882420672	35656
62	2370	6.642573574225	35656
62	2409	6.742573573922	35756
62	2447	6.842845572334	35856
62	2477	6.87199903578	35856
62	2514	6.942573570812	35956
62	2552	7.042573569364	36056
62	2590	7.142573567991	36156
62	2622	7.238824211313	36256
62	2656	7.242573566707	36256
62	2687	7.271727036781	36256
62	2724	7.342845565506	36356
62	2762	7.442573564333	36456
62	2829	7.542573562971	36556
62	2867	7.642573561652	36656
62	2906	7.771999040853	36756
62	2937	7.838824214195	36856
62	2984	8.038552214857	37056
62	3018	8.042845557608	37056
62	3060	8.238552215594	37256
62	3096	8.271999048576	37256
62	3165	8.438824215465	37456
62	3199	8.44257355615	37456
62	3232	8.538552214897	37556
62	3270	8.638552214316	37656
62	3308	8.738552213826	37756
62	3344	8.77199905973	37756
62	3375	8.838552213437	37856
62	3409	8.842845557387	37856
62	3442	8.938824211954	37956
62	3480	9.038552210498	38056
62	3518	9.138552209211	38156
62	3585	9.238552208112	38256
62	3619	9.242573561597	38256
62	3650	9.271999073724	38256
62	3681	9.338552207213	38356
62	3719	9.438824206533	38456
62	3757	9.538552206073	38556
62	3790	9.63855220424	38656
62	3831	9.671727086688	38656
62	3857	9.738552203477	38756
62	3896	9.742845570682	38756
62	3924	9.838552203278	38856
62	4012	10.0719991009	39056
62	4047	10.238824204859	39256
62	4086	10.242845582871	39256
62	4135	10.471727115596	39456
62	4199	10.638552210505	39656
62	4248	10.742845597566	39756
62	4287	10.871999131402	39856
62	4327	11.038824218834	40056
62	4409	11.242845611936	40256
62	4439	11.271727145427	40256
62	4508	11.438552226932	40456
62	4591	11.671999157667	40656
62	4657	11.742845623176	40756
62	4756	11.938824233411	40956
62	4830	12.071727165626	41056
62	4896	12.142573628523	41156
62	5033	12.438824237003	41456
62	5069	12.471999171189	41456
62	5135	12.542845632221	41556
62	5279	12.871727181466	41856
62	5339	12.938824245196	41956
62	5373	12.942573640637	41956
62	5460	13.271999186346	42256
62	5497	13.342845643625	42356
62	5558	13.438824248295	42456
62	5612	13.671727190869	42656
62	5649	13.742573646281	42756
62	5710	13.838552250776	42856
62	5764	14.07199919508	43056
62	5801	14.142845648617	43156
62	5862	14.238824253229	43256
62	5916	14.471727198989	43456
62	5953	14.542573650647	43556
62	6014	14.638552255627	43656
62	6068	14.871999202505	43856
62	6105	14.942845652306	43956
62	6137	15.038824258044	44056
62	6220	15.271727205744	44256
62	6257	15.342573653665	44356
62	6289	15.438552260167	44456
62	6372	15.67199920865	44656
62	6409	15.742845654684	44756
62	6441	15.83882426188	44856
62	6495	16.071727211212	45056
62	6561	16.142573655376	45156
62	6593	16.238552263167	45256
62	6647	16.47199921342	45456
62	6684	16.542845655703	45556
62	6745	16.638824264009	45656
62	6799	16.871727215292	45856
62	6836	16.94257365569	45956
62	6897	17.038552264434	46056
62	6951	17.271999216832	46256
62	6988	17.342845655364	46356
62	7049	17.438824264497	46456
62	7103	17.671727218103	46656
62	7140	17.742573654771	46756
62	7201	17.83855226424	46856
62	7255	18.071999219063	47056
62	7292	18.142845653888	47156
62	7353	18.238824263672	47256
62	7407	18.471727219756	47456
62	7444	18.542573652715	47556
62	7505	18.638552262738	47656
62	7559	18.871999220107	47856
62	7596	18.942845651176	47956
62	7657	19.038824261399	48056
62	7711	19.271727220134	48256
62	7748	19.342573649337	48356
62	7809	19.438552259746	48456
62	7863	19.671999219856	48656
62	7900	19.74284564722	48756
62	7961	19.838824257836	48856
62	8015	20.071727219522	49056
62	8052	20.142573645104	49156
62	8113	20.238552255909	49256
62	8167	20.471999219182	49456
62	8204	20.542845642978	49556
62	8265	20.638824253966	49656
62	8319	20.871727218864	49856
62	8356	20.942573640861	49956
62	8417	21.038552252002	50056
62	8471	21.271999218534	50256
62	8508	21.34284563875	50356
62	8569	21.438824250019	50456
62	8623	21.671727218184	50656
62	8660	21.74257363662	50756
62	8721	21.838552248029	50856
62	8775	22.07199921785	51056
62	8812	22.142845634502	51156
62	8873	22.238824245993	51256
62	8927	22.471727217517	51456
62	8964	22.542573632395	51556
62	9025	22.638552243982	51656
62	9079	22.871999217183	51856
62	9116	22.942845630269	51956
62	9177	23.038824241958	52056
62	9222	23.171727216473	52156
62	9268	23.342573628155	52356
62	9298	23.371999215253	52356
62	9358	23.438552239905	52456
62	9403	23.571727213438	52556
62	9449	23.742845626046	52756
62	9479	23.771727211026	52756
62	9539	23.838824237881	52856
62	9584	23.97199920801	52956
62	9630	24.142573623924	53156
62	9660	24.171727204499	53156
62	9720	24.238552235834	53256
62	9765	24.371727200917	53356
62	9811	24.542845621808	53556
62	9841	24.571999196894	53556
62	9901	24.63882423375	53656
62	9937	24.671727194666	53656
62	9975	24.77172719193	53756
62	10013	24.871727189199	53856
62	10050	24.942573619704	53956
62	10080	24.971727186091	53956
62	10140	25.038552231677	54056
62	10176	25.071999182509	54056
62	10214	25.171727178947	54156
62	10252	25.271727175347	54256
62	10289	25.342845617586	54356
62	10319	25.371727171487	54356
62	10379	25.438824229615	54456
62	10415	25.471727167605	54456
62	10453	25.571999163715	54556
62	10491	25.671727159847	54656
62	10528	25.74257361553	54756
62	10558	25.771727155997	54756
62	10618	25.838552227616	54856
62	10654	25.871727152163	54856
62	10709	26.14284561355	55156
62	10739	26.171999140824	55156
62	10799	26.23882422576	55256
62	10852	26.442573611713	55456
62	10882	26.471727129833	55456
62	10951	26.638552223787	55656
62	10995	26.742845609667	55756
62	11025	26.771999119386	55756
62	11103	27.038824221749	56056
62	11137	27.042573607418	56056
62	11168	27.071727109459	56056
62	11223	27.342845605019	56356
62	11284	27.438552219633	56456
62	11337	27.642573602466	56656
62	11407	27.838824217506	56856
62	11451	27.942845599715	56956
62	11490	28.071999080358	57056
62	11521	28.138552215771	57156
62	11594	28.24257359664	57256
62	11635	28.438824214142	57456
62	11679	28.542845593713	57556
62	11749	28.738552212581	57756
62	11783	28.742573591455	57756
62	11822	28.842573590166	57856
62	11860	28.942573588481	57956
62	11921	29.038824211014	58056
62	11955	29.042845586847	58056
62	11986	29.07199905791	58056
62	12023	29.142573585253	58156
62	12061	29.242573583252	58256
62	12099	29.342573581097	58356
62	12166	29.442573578998	58456
62	12204	29.542845576973	58556
62	12236	29.638824207989	58656
62	12270	29.642573575009	58656
62	12309	29.742573572879	58756
62	12347	29.84257357082	58856
62	12414	29.942573568839	58956
62	12446	30.038552205892	59056
62	12480	30.042845566929	59056
62	12511	30.071999042248	59056
62	12548	30.142573565156	59156
62	12609	30.238824204525	59256
62	12653	30.342573561978	59356
62	12714	30.438552202921	59456
62	12758	30.542845559298	59556
62	12819	30.63855220106	59656
62	12863	30.742573557096	59756
62	12924	30.838824198939	59856
62	12968	30.942573555346	59956
62	13029	31.038552196538	60056
62	13065	31.071999035798	60056
62	13129	31.238552193933	60256
62	13205	31.438824191549	60456
62	13252	31.638552189442	60656
62	13328	31.838552187591	60856
62	13377	31.942845552385	60956
62	13445	32.07199903739	61056
62	13592	32.83882418142	61856
62	13670	32.942845555954	61956
62	13709	33.071999043334	62056
62	13827	33.838824178756	62856
62	13876	33.942845562709	62956
62	13915	34.071999051297	63056
62	14015	34.63882417843	63656
62	14111	34.942845570606	63956
62	14150	35.071999059928	64056
62	14232	35.438824179178	64456
62	14317	35.942845578472	64956
62	14356	36.071999068468	65056
62	14391	36.238824180291	65256
62	14523	36.942845586103	420
62	14550	37.038824181597	520
62	14591	37.071999076816	520
62	14682	37.538824182271	1020
62	14738	37.83855218267	1320
62	14787	37.942845593685	1420
62	14826	38.071999085066	1520
62	14852	38.138824182913	1620
62	14928	38.33855218274	1820
62	14975	38.538552182624	2020
62	15022	38.738824182566	2220
62	15060	38.838552182271	2320
62	15098	38.938552181977	2420
62	15137	38.942845601445	2420
62	15194	39.038552181721	2520
62	15235	39.071999093448	2520
62	15261	39.138552181511	2620
62	15299	39.238824181349	2720
62	15337	39.338552181244	2820
62	15375	39.438552181211	2920
62	15413	39.538552181133	3020
62	15451	39.638552181119	3120
62	15489	39.738824181192	3220
62	15556	39.838552181354	3320
62	15594	39.938552181615	3420
62	15633	39.942845609668	3420
62	15673	40.071999102069	3520
62	15699	40.138552182217	3620
62	15746	40.338824183134	3820
62	15793	40.538552184407	4020
62	15869	40.738552185822	4220
62	15927	40.942845616202	4420
62	15995	41.071999108419	4520
62	16182	41.638824190219	5120
62	16336	41.942845615311	5420
62	16404	42.071999106715	5520
62	16573	42.438824191936	5920
62	16774	42.942845609558	6420
62	16813	43.071999100734	6520
62	16877	43.238824193473	6720
62	16998	43.938824194757	7420
62	17037	43.942845601752	7420
62	17106	44.071999092806	7520
62	17132	44.138552194537	7620
62	17208	44.338552194051	7820
62	17255	44.538824193289	8020
62	17331	44.738552192223	8220
62	17407	44.938552191292	8420
62	17446	44.942845596923	8420
62	17486	45.071999088656	8520
62	17512	45.138824190522	8620
62	17588	45.338552189884	8820
62	17740	45.942845595851	9420
62	17779	46.071999087695	9520
62	17814	46.238824188391	9720
62	17946	46.942845595043	10420
62	17973	47.038824188353	10520
62	18014	47.071999086799	10520
62	18132	47.838824188913	11320
62	18181	47.942845593285	11420
62	18220	48.071999084933	11520
62	18320	48.638824192364	12120
62	18416	48.942845594226	12420
62	18455	49.071999086177	12520
62	18537	49.4388241973	12920
62	18651	49.942845594103	13420
62	18690	50.071999085834	13520
62	18725	50.238824202166	13720
62	18857	50.942845591883	14420
62	18884	51.038824206915	14520
62	18925	51.071999083438	14520
62	19039	51.738824210596	15220
62	19092	51.94284558766	15420
62	19124	52.038552211182	15520
62	19160	52.071999079016	15520
62	19200	52.238824210755	15720
62	19276	52.438552210127	15920
62	19323	52.638552209491	16120
62	19370	52.838824208858	16320
62	19414	52.942845581262	16420
62	19453	53.071999072389	16520
62	19576	53.838824204909	17320
62	19620	53.942845572696	17420
62	19688	54.071999063641	17520
62	19811	54.838824198915	18320
62	19855	54.942845564207	18420
62	19894	55.071999055424	18520
62	20075	55.838824196196	19320
62	20119	55.942845560874	19420
62	20187	56.07199905316	19520
62	20397	56.838824204714	20320
62	20441	56.942845569307	20420
62	20509	57.071999062212	20520
62	20603	57.838824215122	21320
62	20647	57.942845579253	21420
62	20715	58.071999072134	21520
62	20814	58.838824225321	22320
62	20853	58.942845589193	22420
62	20921	59.071999082056	22520
62	21020	59.838824235395	23320
62	21059	59.942845599135	23420
62	21127	60.071999091989	23520
62	21226	60.838824245401	24320
62	21265	60.942845609056	24420
62	21333	61.071999101915	24520
62	21432	61.838824254842	25320
62	21471	61.942845618285	25420
62	21539	62.071999110959	25520
62	21667	62.838824262085	26320
62	21706	62.942845625325	26420
62	21745	63.071999117791	26520
62	21873	63.838824267362	27320
62	21912	63.942845630364	27420
62	21951	64.071999122648	27520
62	22079	64.838824270556	28320
62	22118	64.942845633367	28420
62	22157	65.071999125439	28520
62	22285	65.83882427176	29320
62	22324	65.942845634358	29420
62	22392	66.071999126264	29520
62	22520	66.838824270843	30320
62	22559	66.942845633215	30420
62	22598	67.071999124903	30520
62	22726	67.838824267857	31320
62	22765	67.942845630063	31420
62	22804	68.071999121541	31520
62	22932	68.838824262996	32320
62	22971	68.942845624987	32420
62	23010	69.071999116246	32520
62	23138	69.838824256053	33320
62	23177	69.942845617826	33420
62	23245	70.071999108882	33520
62	23373	70.838824247164	34320
62	23412	70.942845608785	34420
62	23451	71.071999099638	34520
62	23579	71.83882423638	35320
62	23618	71.9428455978	35420
62	23657	72.071999088425	35520
62	23814	72.838824223484	36320
62	23853	72.942845584675	36420
62	23892	73.071999075086	36520
62	24044	73.838824209824	37320
62	24088	73.942845571277	37420
62	24127	74.071999062043	37520
62	24279	74.838824200466	38320
62	24323	74.942845562336	38420
62	24391	75.071999053506	38520
62	24543	75.838824194689	39320
62	24587	75.942845556858	39420
62	24626	76.071999048325	39520
62	24749	76.838824191313	40320
62	24793	76.942845553682	40420
62	24832	77.071999045315	40520
62	24955	77.838824189422	41320
62	24999	77.942845551879	41420
62	25038	78.071999043628	41520
62	25161	78.838824188368	42320
62	25205	78.942845550895	42420
62	25244	79.0719990427	42520
62	25367	79.838824187799	43320
62	25411	79.942845550357	43420
62	25450	80.071999042204	43520
62	25573	80.838824187499	44320
62	25617	80.942845550095	44420
62	25656	81.071999041951	44520
62	25779	81.838824187355	45320
62	25823	81.942845549944	45420
62	25862	82.07199904182	45520
62	25985	82.838824187268	46320
62	26029	82.942845549881	46420
62	26068	83.071999041743	46520
62	26191	83.838824187246	47320
62	26235	83.942845549832	47420
62	26274	84.071999041709	47520
62	26397	84.838824187219	48320
62	26441	84.942845549818	48420
62	26480	85.071999041688	48520
62	26603	85.838824187198	49320
62	26647	85.942845549796	49420
62	26686	86.07199904166	49520
62	26809	86.838824187215	50320
62	26853	86.942845549807	50420
62	26892	87.071999041694	50520
62	27015	87.838824187198	51320
62	27052	87.942845549777	51420
62	27155	88.838824187415	52320
62	27183	88.842845550503	52320
62	27293	89.742845552196	53220
62	27317	89.83882418818	53320
62	27418	90.542845554255	54020
62	27447	90.738824189252	54220
62	27526	91.638824190532	55120
62	27605	92.538824191942	56020

