version 2
run Obstacles-0-20220917-13:13:45-6292
attr configname Obstacles
attr datetime 20220917-13:13:45
attr experiment Obstacles
attr inifile omnetpp.ini
attr iterationvars ""
attr iterationvarsf ""
attr measurement ""
attr network CanvasWorld
attr processid 6292
attr repetition 0
attr replication #0
attr resultdir results
attr runnumber 0
attr seedset 0
param *.withPhysicalEnvironment true
param *.physicalEnvironment.config "xmldoc(\"obstacles.xml\")"
param *.traci.core.version -1
param *.traci.launcher.typename "\"PosixLauncher\""
param *.traci.launcher.sumocfg "\"politecnico.sumo.cfg\""
param *.traci.launcher.sumo "\"sumo-gui\""
param *.node[*].wlan[*].typename "\"VanetNic\""
param *.node[*].wlan[*].radio.channelNumber 180
param *.node[*].wlan[*].radio.carrierFrequency "5.9 GHz"
param *.node[*].wlan[*].radio.transmitter.power "200 mW"
param *.node[*].middleware.updateInterval 0.1s
param *.node[*].middleware.datetime "\"2022-08-16 15:00:00\""
param *.node[*].middleware.services "xmldoc(\"services.xml\")"
param *.withStoryboard true
param *.storyboard.python "\"story\""
param *.storyboard.canvas "\"CanvasWorld\""
param **.safeDist "150.0 m"

vector 0 CanvasWorld.node[0].middleware.CAM transmission:vector(camStationId) ETV
attr source CamSent
vector 1 CanvasWorld.node[0].middleware.CAM transmission:vector(camGenerationDeltaTime) ETV
attr source CamSent
vector 2 CanvasWorld.node[0].middleware.CAM transmission:vector(camSpeed) ETV
attr source CamSent
vector 3 CanvasWorld.node[1].middleware.CAM transmission:vector(camStationId) ETV
attr source CamSent
vector 4 CanvasWorld.node[1].middleware.CAM transmission:vector(camGenerationDeltaTime) ETV
attr source CamSent
vector 5 CanvasWorld.node[1].middleware.CAM transmission:vector(camSpeed) ETV
attr source CamSent
vector 6 CanvasWorld.node[0].middleware.CAM reception:vector(camStationId) ETV
attr source CamReceived
vector 7 CanvasWorld.node[0].middleware.CAM reception:vector(camGenerationDeltaTime) ETV
attr source CamReceived
vector 8 CanvasWorld.node[0].middleware.CAM reception:vector(camSpeed) ETV
attr source CamReceived
vector 9 CanvasWorld.node[1].middleware.CAM reception:vector(camStationId) ETV
attr source CamReceived
vector 10 CanvasWorld.node[1].middleware.CAM reception:vector(camGenerationDeltaTime) ETV
attr source CamReceived
vector 11 CanvasWorld.node[1].middleware.CAM reception:vector(camSpeed) ETV
attr source CamReceived
vector 12 CanvasWorld.node[2].middleware.CAM transmission:vector(camStationId) ETV
attr source CamSent
vector 13 CanvasWorld.node[2].middleware.CAM transmission:vector(camGenerationDeltaTime) ETV
attr source CamSent
vector 14 CanvasWorld.node[2].middleware.CAM transmission:vector(camSpeed) ETV
attr source CamSent
vector 15 CanvasWorld.node[2].middleware.CAM reception:vector(camStationId) ETV
attr source CamReceived
vector 16 CanvasWorld.node[2].middleware.CAM reception:vector(camGenerationDeltaTime) ETV
attr source CamReceived
vector 17 CanvasWorld.node[2].middleware.CAM reception:vector(camSpeed) ETV
attr source CamReceived
vector 18 CanvasWorld.node[3].middleware.CAM reception:vector(camStationId) ETV
attr source CamReceived
vector 19 CanvasWorld.node[3].middleware.CAM reception:vector(camGenerationDeltaTime) ETV
attr source CamReceived
vector 20 CanvasWorld.node[3].middleware.CAM reception:vector(camSpeed) ETV
attr source CamReceived
vector 21 CanvasWorld.node[3].middleware.CAM transmission:vector(camStationId) ETV
attr source CamSent
vector 22 CanvasWorld.node[3].middleware.CAM transmission:vector(camGenerationDeltaTime) ETV
attr source CamSent
vector 23 CanvasWorld.node[3].middleware.CAM transmission:vector(camSpeed) ETV
attr source CamSent
vector 24 CanvasWorld.node[1].middleware.Receiver speedValues:vector ETV
vector 25 CanvasWorld.node[3].middleware.Receiver speedValues:vector ETV
vector 26 CanvasWorld.node[2].middleware.Receiver speedValues:vector ETV
0	6	0.271518936497	2546248239
0	23	0.471518936497	2546248239
0	40	0.671518936497	2546248239
0	57	0.871518936497	2546248239
0	95	1.771518936497	2546248239
0	130	2.571518936497	2546248239
0	165	3.371518936497	2546248239
0	200	4.171518936497	2546248239
0	235	4.971518936497	2546248239
0	270	5.771518936497	2546248239
0	305	6.571518936497	2546248239
0	340	7.371518936497	2546248239
0	375	8.171518936497	2546248239
0	410	8.971518936497	2546248239
0	445	9.771518936497	2546248239
0	495	10.371518936497	2546248239
0	566	10.771518936497	2546248239
0	610	10.971518936497	2546248239
0	637	11.171518936497	2546248239
0	664	11.371518936497	2546248239
0	686	11.471518936497	2546248239
0	708	11.571518936497	2546248239
0	730	11.671518936497	2546248239
0	752	11.771518936497	2546248239
0	791	11.871518936497	2546248239
0	813	11.971518936497	2546248239
0	835	12.071518936497	2546248239
0	857	12.171518936497	2546248239
0	879	12.271518936497	2546248239
0	901	12.371518936497	2546248239
0	923	12.471518936497	2546248239
0	945	12.571518936497	2546248239
0	967	12.671518936497	2546248239
0	1006	12.771518936497	2546248239
0	1043	13.171518936497	2546248239
0	1080	13.571518936497	2546248239
0	1134	13.971518936497	2546248239
0	1171	14.371518936497	2546248239
0	1230	14.871518936497	2546248239
0	1272	15.371518936497	2546248239
0	1331	15.871518936497	2546248239
0	1390	16.371518936497	2546248239
0	1427	16.771518936497	2546248239
0	1464	17.171518936497	2546248239
0	1518	17.571518936497	2546248239
0	1555	17.971518936497	2546248239
0	1609	18.371518936497	2546248239
0	1646	18.771518936497	2546248239
0	1700	19.171518936497	2546248239
0	1737	19.571518936497	2546248239
0	1791	19.971518936497	2546248239
0	1856	20.371518936497	2546248239
0	1976	20.771518936497	2546248239
0	2096	21.171518936497	2546248239
0	2193	21.571518936497	2546248239
0	2359	21.971518936497	2546248239
0	2502	22.371518936497	2546248239
0	2668	22.771518936497	2546248239
0	2765	23.171518936497	2546248239
0	2862	23.571518936497	2546248239
0	2936	23.971518936497	2546248239
0	3033	24.371518936497	2546248239
0	3107	24.771518936497	2546248239
0	3204	25.171518936497	2546248239
0	3278	25.571518936497	2546248239
0	3352	25.971518936497	2546248239
0	3426	26.371518936497	2546248239
0	3523	26.771518936497	2546248239
0	3597	27.171518936497	2546248239
0	3694	27.571518936497	2546248239
0	3768	27.971518936497	2546248239
0	3865	28.371518936497	2546248239
0	3939	28.771518936497	2546248239
0	4036	29.171518936497	2546248239
0	4110	29.571518936497	2546248239
0	4200	29.871518936497	2546248239
0	4237	30.071518936497	2546248239
0	4335	30.271518936497	2546248239
0	4440	30.471518936497	2546248239
0	4545	30.671518936497	2546248239
0	4650	30.871518936497	2546248239
0	4755	31.071518936497	2546248239
0	4831	31.271518936497	2546248239
0	4965	31.471518936497	2546248239
0	5032	31.571518936497	2546248239
0	5099	31.671518936497	2546248239
0	5195	31.771518936497	2546248239
0	5291	31.871518936497	2546248239
0	5358	31.971518936497	2546248239
0	5455	32.071518936497	2546248239
0	5582	32.171518936497	2546248239
0	5691	32.271518936497	2546248239
0	5806	32.371518936497	2546248239
0	5933	32.471518936497	2546248239
0	6042	32.571518936497	2546248239
0	6186	32.671518936497	2546248239
0	6313	32.771518936497	2546248239
0	6663	33.371518936497	2546248239
0	7038	33.971518936497	2546248239
0	7384	34.571518936497	2546248239
0	7701	35.171518936497	2546248239
0	8047	35.771518936497	2546248239
0	8422	36.371518936497	2546248239
0	8739	36.971518936497	2546248239
0	9114	37.571518936497	2546248239
0	9460	38.171518936497	2546248239
0	9806	38.771518936497	2546248239
0	10152	39.371518936497	2546248239
0	10614	39.971518936497	2546248239
0	11018	40.571518936497	2546248239
0	11393	41.171518936497	2546248239
0	11855	41.771518936497	2546248239
0	12346	42.371518936497	2546248239
0	12808	42.971518936497	2546248239
0	13154	43.571518936497	2546248239
0	13529	44.171518936497	2546248239
0	13875	44.771518936497	2546248239
0	14250	45.371518936497	2546248239
0	14683	45.971518936497	2546248239
0	15145	46.571518936497	2546248239
0	15636	47.171518936497	2546248239
0	16098	47.771518936497	2546248239
0	16444	48.371518936497	2546248239
0	16819	48.971518936497	2546248239
0	17165	49.571518936497	2546248239
0	17540	50.171518936497	2546248239
0	17886	50.771518936497	2546248239
0	18261	51.371518936497	2546248239
0	18607	51.971518936497	2546248239
0	18982	52.571518936497	2546248239
0	19328	53.171518936497	2546248239
0	19703	53.771518936497	2546248239
0	20049	54.371518936497	2546248239
0	20424	54.971518936497	2546248239
0	20770	55.571518936497	2546248239
2	6	0.271518936497	8
2	23	0.471518936497	23
2	40	0.671518936497	37
2	57	0.871518936497	52
2	95	1.771518936497	108
2	130	2.571518936497	159
2	165	3.371518936497	210
2	200	4.171518936497	257
2	235	4.971518936497	303
2	270	5.771518936497	355
2	305	6.571518936497	398
2	340	7.371518936497	447
2	375	8.171518936497	492
2	410	8.971518936497	538
2	445	9.771518936497	586
2	495	10.371518936497	622
2	566	10.771518936497	654
2	610	10.971518936497	667
2	637	11.171518936497	682
2	664	11.371518936497	697
2	686	11.471518936497	702
2	708	11.571518936497	707
2	730	11.671518936497	712
2	752	11.771518936497	718
2	791	11.871518936497	726
2	813	11.971518936497	732
2	835	12.071518936497	738
2	857	12.171518936497	743
2	879	12.271518936497	747
2	901	12.371518936497	754
2	923	12.471518936497	760
2	945	12.571518936497	767
2	967	12.671518936497	775
2	1006	12.771518936497	782
2	1043	13.171518936497	806
2	1080	13.571518936497	832
2	1134	13.971518936497	857
2	1171	14.371518936497	884
2	1230	14.871518936497	913
2	1272	15.371518936497	941
2	1331	15.871518936497	971
2	1390	16.371518936497	998
2	1427	16.771518936497	1019
2	1464	17.171518936497	1041
2	1518	17.571518936497	1065
2	1555	17.971518936497	1088
2	1609	18.371518936497	1113
2	1646	18.771518936497	1137
2	1700	19.171518936497	1164
2	1737	19.571518936497	1190
2	1791	19.971518936497	1197
2	1856	20.371518936497	1198
2	1976	20.771518936497	1198
2	2096	21.171518936497	1198
2	2193	21.571518936497	1198
2	2359	21.971518936497	1198
2	2502	22.371518936497	1200
2	2668	22.771518936497	1199
2	2765	23.171518936497	1196
2	2862	23.571518936497	1198
2	2936	23.971518936497	1200
2	3033	24.371518936497	1199
2	3107	24.771518936497	1196
2	3204	25.171518936497	1198
2	3278	25.571518936497	1198
2	3352	25.971518936497	1198
2	3426	26.371518936497	1197
2	3523	26.771518936497	1199
2	3597	27.171518936497	1199
2	3694	27.571518936497	1199
2	3768	27.971518936497	1199
2	3865	28.371518936497	1196
2	3939	28.771518936497	1198
2	4036	29.171518936497	1197
2	4110	29.571518936497	1197
2	4200	29.871518936497	1119
2	4237	30.071518936497	1029
2	4335	30.271518936497	940
2	4440	30.471518936497	850
2	4545	30.671518936497	760
2	4650	30.871518936497	670
2	4755	31.071518936497	669
2	4831	31.271518936497	666
2	4965	31.471518936497	670
2	5032	31.571518936497	668
2	5099	31.671518936497	667
2	5195	31.771518936497	666
2	5291	31.871518936497	669
2	5358	31.971518936497	669
2	5455	32.071518936497	667
2	5582	32.171518936497	668
2	5691	32.271518936497	674
2	5806	32.371518936497	680
2	5933	32.471518936497	687
2	6042	32.571518936497	692
2	6186	32.671518936497	699
2	6313	32.771518936497	706
2	6663	33.371518936497	741
2	7038	33.971518936497	779
2	7384	34.571518936497	800
2	7701	35.171518936497	796
2	8047	35.771518936497	798
2	8422	36.371518936497	800
2	8739	36.971518936497	799
2	9114	37.571518936497	800
2	9460	38.171518936497	799
2	9806	38.771518936497	796
2	10152	39.371518936497	798
2	10614	39.971518936497	799
2	11018	40.571518936497	798
2	11393	41.171518936497	797
2	11855	41.771518936497	798
2	12346	42.371518936497	797
2	12808	42.971518936497	799
2	13154	43.571518936497	797
2	13529	44.171518936497	799
2	13875	44.771518936497	799
2	14250	45.371518936497	796
2	14683	45.971518936497	797
2	15145	46.571518936497	798
2	15636	47.171518936497	797
2	16098	47.771518936497	796
2	16444	48.371518936497	797
2	16819	48.971518936497	798
2	17165	49.571518936497	800
2	17540	50.171518936497	799
2	17886	50.771518936497	799
2	18261	51.371518936497	799
2	18607	51.971518936497	796
2	18982	52.571518936497	799
2	19328	53.171518936497	798
2	19703	53.771518936497	800
2	20049	54.371518936497	796
2	20424	54.971518936497	800
2	20770	55.571518936497	800
1	6	0.271518936497	29256
1	23	0.471518936497	29456
1	40	0.671518936497	29656
1	57	0.871518936497	29856
1	95	1.771518936497	30756
1	130	2.571518936497	31556
1	165	3.371518936497	32356
1	200	4.171518936497	33156
1	235	4.971518936497	33956
1	270	5.771518936497	34756
1	305	6.571518936497	35556
1	340	7.371518936497	36356
1	375	8.171518936497	37156
1	410	8.971518936497	37956
1	445	9.771518936497	38756
1	495	10.371518936497	39356
1	566	10.771518936497	39756
1	610	10.971518936497	39956
1	637	11.171518936497	40156
1	664	11.371518936497	40356
1	686	11.471518936497	40456
1	708	11.571518936497	40556
1	730	11.671518936497	40656
1	752	11.771518936497	40756
1	791	11.871518936497	40856
1	813	11.971518936497	40956
1	835	12.071518936497	41056
1	857	12.171518936497	41156
1	879	12.271518936497	41256
1	901	12.371518936497	41356
1	923	12.471518936497	41456
1	945	12.571518936497	41556
1	967	12.671518936497	41656
1	1006	12.771518936497	41756
1	1043	13.171518936497	42156
1	1080	13.571518936497	42556
1	1134	13.971518936497	42956
1	1171	14.371518936497	43356
1	1230	14.871518936497	43856
1	1272	15.371518936497	44356
1	1331	15.871518936497	44856
1	1390	16.371518936497	45356
1	1427	16.771518936497	45756
1	1464	17.171518936497	46156
1	1518	17.571518936497	46556
1	1555	17.971518936497	46956
1	1609	18.371518936497	47356
1	1646	18.771518936497	47756
1	1700	19.171518936497	48156
1	1737	19.571518936497	48556
1	1791	19.971518936497	48956
1	1856	20.371518936497	49356
1	1976	20.771518936497	49756
1	2096	21.171518936497	50156
1	2193	21.571518936497	50556
1	2359	21.971518936497	50956
1	2502	22.371518936497	51356
1	2668	22.771518936497	51756
1	2765	23.171518936497	52156
1	2862	23.571518936497	52556
1	2936	23.971518936497	52956
1	3033	24.371518936497	53356
1	3107	24.771518936497	53756
1	3204	25.171518936497	54156
1	3278	25.571518936497	54556
1	3352	25.971518936497	54956
1	3426	26.371518936497	55356
1	3523	26.771518936497	55756
1	3597	27.171518936497	56156
1	3694	27.571518936497	56556
1	3768	27.971518936497	56956
1	3865	28.371518936497	57356
1	3939	28.771518936497	57756
1	4036	29.171518936497	58156
1	4110	29.571518936497	58556
1	4200	29.871518936497	58856
1	4237	30.071518936497	59056
1	4335	30.271518936497	59256
1	4440	30.471518936497	59456
1	4545	30.671518936497	59656
1	4650	30.871518936497	59856
1	4755	31.071518936497	60056
1	4831	31.271518936497	60256
1	4965	31.471518936497	60456
1	5032	31.571518936497	60556
1	5099	31.671518936497	60656
1	5195	31.771518936497	60756
1	5291	31.871518936497	60856
1	5358	31.971518936497	60956
1	5455	32.071518936497	61056
1	5582	32.171518936497	61156
1	5691	32.271518936497	61256
1	5806	32.371518936497	61356
1	5933	32.471518936497	61456
1	6042	32.571518936497	61556
1	6186	32.671518936497	61656
1	6313	32.771518936497	61756
1	6663	33.371518936497	62356
1	7038	33.971518936497	62956
1	7384	34.571518936497	63556
1	7701	35.171518936497	64156
1	8047	35.771518936497	64756
1	8422	36.371518936497	65356
1	8739	36.971518936497	420
1	9114	37.571518936497	1020
1	9460	38.171518936497	1620
1	9806	38.771518936497	2220
1	10152	39.371518936497	2820
1	10614	39.971518936497	3420
1	11018	40.571518936497	4020
1	11393	41.171518936497	4620
1	11855	41.771518936497	5220
1	12346	42.371518936497	5820
1	12808	42.971518936497	6420
1	13154	43.571518936497	7020
1	13529	44.171518936497	7620
1	13875	44.771518936497	8220
1	14250	45.371518936497	8820
1	14683	45.971518936497	9420
1	15145	46.571518936497	10020
1	15636	47.171518936497	10620
1	16098	47.771518936497	11220
1	16444	48.371518936497	11820
1	16819	48.971518936497	12420
1	17165	49.571518936497	13020
1	17540	50.171518936497	13620
1	17886	50.771518936497	14220
1	18261	51.371518936497	14820
1	18607	51.971518936497	15420
1	18982	52.571518936497	16020
1	19328	53.171518936497	16620
1	19703	53.771518936497	17220
1	20049	54.371518936497	17820
1	20424	54.971518936497	18420
1	20770	55.571518936497	19020
6	490	10.279652610472	2051556033
6	534	10.479380614499	2051556033
6	561	10.679380618507	2051556033
6	605	10.879652622028	2051556033
6	785	11.779652632185	2051556033
6	1000	12.679652627043	2051556033
6	1113	13.579652621973	2051556033
6	1210	14.47965262228	2051556033
6	1305	15.379652629202	2051556033
6	1385	16.27965264414	2051556033
6	1497	17.179652666406	2051556033
6	1594	18.079652695104	2051556033
6	1690	18.97965272879	2051556033
6	1781	19.779652762561	2051556033
6	1847	20.222712407026	2628931110
6	1901	20.379652788378	2051556033
6	1930	20.422440413924	2628931110
6	1967	20.622440420881	2628931110
6	2027	20.822712427896	2628931110
6	2052	20.879652809851	2051556033
6	2089	21.079380817156	2051556033
6	2149	21.279380824529	2051556033
6	2186	21.479652830755	2051556033
6	2238	21.579380832943	2051556033
6	2269	21.679380835128	2051556033
6	2297	21.722712460177	2628931110
6	2322	21.779380837313	2051556033
6	2352	21.879380839485	2051556033
6	2404	21.979652841236	2051556033
6	2435	22.0793808428	2051556033
6	2465	22.179380844343	2051556033
6	2495	22.279380845889	2051556033
6	2547	22.379380847428	2051556033
6	2578	22.479652848954	2051556033
6	2606	22.522712489801	2628931110
6	2631	22.579380850501	2051556033
6	2661	22.679380854669	2051556033
6	2713	22.779380858567	2051556033
6	2744	22.879380860059	2051556033
6	2818	23.27965286582	2051556033
6	2846	23.322712520277	2628931110
6	2915	23.679380871269	2051556033
6	2989	24.079652876445	2051556033
6	3017	24.122712551585	2628931110
6	3086	24.479380881295	2051556033
6	3165	24.922712583755	2628931110
6	3190	24.97965288685	2051556033
6	3271	25.479652891901	2051556033
6	3336	25.722712616796	2628931110
6	3397	25.97965289644	2051556033
6	3479	26.479652900436	2051556033
6	3507	26.522712650641	2628931110
6	3583	26.979652903941	2051556033
6	3655	27.322712685385	2628931110
6	3680	27.379380906358	2051556033
6	3754	27.779652908496	2051556033
6	3828	28.17938091033	2051556033
6	3856	28.222712725418	2628931110
6	3925	28.579652911902	2051556033
6	3999	28.979380913122	2051556033
6	4027	29.022712762042	2628931110
6	4096	29.379652913998	2051556033
6	4170	29.779380914421	2051556033
6	4198	29.822712798737	2628931110
6	4297	30.179652912683	2051556033
6	4333	30.228761338081	1897133962
6	4408	30.422712821486	2628931110
6	4437	30.428489343792	1897133962
6	4507	30.579380908324	2051556033
6	4543	30.628489348946	1897133962
6	4618	30.822440832309	2628931110
6	4647	30.828761353561	1897133962
6	4717	30.979652901698	2051556033
6	4752	31.022712836336	2628931110
6	4828	31.222440840169	2628931110
6	4895	31.322440840922	2628931110
6	4927	31.379380894087	2051556033
6	4962	31.422440841155	2628931110
6	5029	31.522712840737	2628931110
6	5096	31.622440840191	2628931110
6	5163	31.722440839628	2628931110
6	5192	31.728761371998	1897133962
6	5252	31.779652883822	2051556033
6	5288	31.822440837831	2628931110
6	5355	31.922440835764	2628931110
6	5422	32.022712833686	2628931110
6	5484	32.079380873218	2051556033
6	5549	32.122440831391	2628931110
6	5611	32.179380870009	2051556033
6	5676	32.222440828938	2628931110
6	5737	32.279652866978	2051556033
6	5773	32.322440826467	2628931110
6	5835	32.379380864264	2051556033
6	5900	32.422440823985	2628931110
6	5962	32.479380861694	2051556033
6	6027	32.522712823878	2628931110
6	6088	32.579380859142	2051556033
6	6124	32.622440823978	2628931110
6	6153	32.628761378115	1897133962
6	6215	32.679380856614	2051556033
6	6280	32.722440821443	2628931110
6	6555	33.122712811242	2628931110
6	6648	33.279652841896	2051556033
6	6796	33.522440800911	2628931110
6	6825	33.528761384216	1897133962
6	6989	33.879652828066	2051556033
6	7035	33.922712790436	2628931110
6	7247	34.322440779791	2628931110
6	7315	34.428761391387	1897133962
6	7364	34.479652815368	2051556033
6	7555	34.822712766305	2628931110
6	7681	35.079652803886	2051556033
6	7834	35.322712752678	2628931110
6	7863	35.328761399311	1897133962
6	8027	35.679652793759	2051556033
6	8111	35.822712738847	2628931110
6	8324	36.228761407772	1897133962
6	8373	36.279652785125	2051556033
6	8419	36.322712724935	2628931110
6	8631	36.722440713746	2628931110
6	8719	36.879652778129	2051556033
6	8872	37.122712702589	2628931110
6	8901	37.128761416672	1897133962
6	9065	37.479652772892	2051556033
6	9111	37.522440691469	2628931110
6	9323	37.922712680328	2628931110
6	9391	38.028761425916	1897133962
6	9440	38.079652769555	2051556033
6	9593	38.322440669072	2628931110
6	9757	38.679652768199	2051556033
6	9803	38.72271265826	2628931110
6	9940	38.928761435422	1897133962
6	10044	39.12244064759	2628931110
6	10132	39.279652768813	2051556033
6	10285	39.52271263716	2628931110
6	10352	39.622440634885	2628931110
6	10419	39.722440632915	2628931110
6	10448	39.728761444111	1897133962
6	10515	39.822440631245	2628931110
6	10565	39.879652771419	2051556033
6	10611	39.922440629873	2628931110
6	10678	40.022712628641	2628931110
6	10776	40.122440627437	2628931110
6	10843	40.222440626262	2628931110
6	10911	40.328761449405	1897133962
6	10998	40.479652775909	2051556033
6	11189	40.822712619765	2628931110
6	11218	40.82876145304	1897133962
6	11324	41.028489453011	1897133962
6	11373	41.079652782212	2051556033
6	11458	41.228489452941	1897133962
6	11593	41.422712614267	2628931110
6	11622	41.428761452035	1897133962
6	11690	41.528489450789	1897133962
6	11757	41.628489449525	1897133962
6	11811	41.679652790207	2051556033
6	11853	41.728489448244	1897133962
6	11920	41.828489446951	1897133962
6	12018	41.9287614456	1897133962
6	12084	42.022712609817	2628931110
6	12113	42.028489444201	1897133962
6	12181	42.128489442801	1897133962
6	12248	42.228489441396	1897133962
6	12302	42.279652799778	2051556033
6	12344	42.328489439985	1897133962
6	12411	42.428761438572	1897133962
6	12509	42.52848943715	1897133962
6	12575	42.622712606448	2628931110
6	12604	42.628489437494	1897133962
6	12672	42.728489439046	1897133962
6	12739	42.828489437661	1897133962
6	12793	42.879652810769	2051556033
6	12979	43.222712604183	2628931110
6	13008	43.228761432068	1897133962
6	13139	43.479652823049	2051556033
6	13219	43.628489426418	1897133962
6	13354	43.82271260302	2628931110
6	13460	44.028761420741	1897133962
6	13514	44.079652836445	2051556033
6	13700	44.422712602977	2628931110
6	13729	44.428489415037	1897133962
6	13860	44.679652850855	2051556033
6	14009	44.928761408073	1897133962
6	14075	45.022712604078	2628931110
6	14130	45.079380860965	2051556033
6	14235	45.279652866169	2051556033
6	14315	45.428761401143	1897133962
6	14371	45.479380870905	2051556033
6	14479	45.622712606258	2628931110
6	14534	45.679380875692	2051556033
6	14639	45.879652879253	2051556033
6	14681	45.928761394287	1897133962
6	14775	46.079380882385	2051556033
6	14871	46.179380883392	2051556033
6	14912	46.222712609528	2628931110
6	14967	46.279380884397	2051556033
6	15034	46.379652885342	2051556033
6	15076	46.428761387514	1897133962
6	15130	46.47938088605	2051556033
6	15197	46.579380886767	2051556033
6	15266	46.679380887488	2051556033
6	15362	46.779380888196	2051556033
6	15403	46.822712613903	2628931110
6	15432	46.828489382212	1897133962
6	15487	46.879652888862	2051556033
6	15554	46.979380889499	2051556033
6	15621	47.079380890121	2051556033
6	15688	47.179380890715	2051556033
6	15730	47.228761377055	1897133962
6	15786	47.279380891299	2051556033
6	15882	47.379652891859	2051556033
6	15923	47.422712619321	2628931110
6	15978	47.479380892405	2051556033
6	16058	47.628489372094	1897133962
6	16269	48.022712625765	2628931110
6	16298	48.028761367188	1897133962
6	16391	48.179652895624	2051556033
6	16509	48.428489362316	1897133962
6	16644	48.622712633415	2628931110
6	16737	48.779652897611	2051556033
6	16779	48.828761358457	1897133962
6	16990	49.222712642045	2628931110
6	17019	49.228489354955	1897133962
6	17112	49.379652898913	2051556033
6	17230	49.628761351771	1897133962
6	17365	49.822712651539	2628931110
6	17458	49.979652899428	2051556033
6	17500	50.028489349065	1897133962
6	17711	50.422712661974	2628931110
6	17740	50.428761346969	1897133962
6	17833	50.579652899405	2051556033
6	17951	50.828489345399	1897133962
6	18086	51.022712673121	2628931110
6	18179	51.179652899385	2051556033
6	18221	51.228761344375	1897133962
6	18432	51.622712684951	2628931110
6	18461	51.628489343906	1897133962
6	18554	51.77965289934	2051556033
6	18672	52.028761343976	1897133962
6	18807	52.222712697413	2628931110
6	18905	52.379652899312	2051556033
6	18942	52.428489344608	1897133962
6	19153	52.822712710469	2628931110
6	19182	52.828761345784	1897133962
6	19280	52.979652899293	2051556033
6	19393	53.228489347502	1897133962
6	19528	53.422712724087	2628931110
6	19626	53.579652899287	2051556033
6	19663	53.628761349773	1897133962
6	19874	54.022712738229	2628931110
6	19903	54.028489352582	1897133962
6	20001	54.179652899291	2051556033
6	20114	54.428761355898	1897133962
6	20249	54.622712752841	2628931110
6	20347	54.779652899277	2051556033
6	20384	54.828489359752	1897133962
6	20595	55.222712767907	2628931110
6	20624	55.228761364104	1897133962
6	20722	55.379652899271	2051556033
6	20835	55.628489368973	1897133962
8	490	10.279652610472	8
8	534	10.479380614499	23
8	561	10.679380618507	39
8	605	10.879652622028	54
8	785	11.779652632185	109
8	1000	12.679652627043	160
8	1113	13.579652621973	212
8	1210	14.47965262228	267
8	1305	15.379652629202	319
8	1385	16.27965264414	368
8	1497	17.179652666406	422
8	1594	18.079652695104	476
8	1690	18.97965272879	527
8	1781	19.779652762561	577
8	1847	20.222712407026	8
8	1901	20.379652788378	617
8	1930	20.422440413924	23
8	1967	20.622440420881	37
8	2027	20.822712427896	50
8	2052	20.879652809851	657
8	2089	21.079380817156	670
8	2149	21.279380824529	682
8	2186	21.479652830755	696
8	2238	21.579380832943	704
8	2269	21.679380835128	710
8	2297	21.722712460177	106
8	2322	21.779380837313	715
8	2352	21.879380839485	722
8	2404	21.979652841236	727
8	2435	22.0793808428	734
8	2465	22.179380844343	742
8	2495	22.279380845889	742
8	2547	22.379380847428	744
8	2578	22.479652848954	744
8	2606	22.522712489801	159
8	2631	22.579380850501	742
8	2661	22.679380854669	742
8	2713	22.779380858567	746
8	2744	22.879380860059	751
8	2818	23.27965286582	776
8	2846	23.322712520277	207
8	2915	23.679380871269	799
8	2989	24.079652876445	819
8	3017	24.122712551585	253
8	3086	24.479380881295	846
8	3165	24.922712583755	306
8	3190	24.97965288685	875
8	3271	25.479652891901	906
8	3336	25.722712616796	353
8	3397	25.97965289644	939
8	3479	26.479652900436	972
8	3507	26.522712650641	398
8	3583	26.979652903941	999
8	3655	27.322712685385	444
8	3680	27.379380906358	1027
8	3754	27.779652908496	1047
8	3828	28.17938091033	1068
8	3856	28.222712725418	499
8	3925	28.579652911902	1094
8	3999	28.979380913122	1115
8	4027	29.022712762042	542
8	4096	29.379652913998	1141
8	4170	29.779380914421	1168
8	4198	29.822712798737	586
8	4297	30.179652912683	1190
8	4333	30.228761338081	8
8	4408	30.422712821486	628
8	4437	30.428489343792	22
8	4507	30.579380908324	1200
8	4543	30.628489348946	38
8	4618	30.822440832309	659
8	4647	30.828761353561	50
8	4717	30.979652901698	1196
8	4752	31.022712836336	674
8	4828	31.222440840169	685
8	4895	31.322440840922	692
8	4927	31.379380894087	1199
8	4962	31.422440841155	700
8	5029	31.522712840737	706
8	5096	31.622440840191	713
8	5163	31.722440839628	719
8	5192	31.728761371998	102
8	5252	31.779652883822	1199
8	5288	31.822440837831	725
8	5355	31.922440835764	732
8	5422	32.022712833686	736
8	5484	32.079380873218	1107
8	5549	32.122440831391	744
8	5611	32.179380870009	1017
8	5676	32.222440828938	751
8	5737	32.279652866978	927
8	5773	32.322440826467	758
8	5835	32.379380864264	837
8	5900	32.422440823985	763
8	5962	32.479380861694	799
8	6027	32.522712823878	771
8	6088	32.579380859142	799
8	6124	32.622440823978	775
8	6153	32.628761378115	156
8	6215	32.679380856614	797
8	6280	32.722440821443	782
8	6555	33.122712811242	802
8	6648	33.279652841896	797
8	6796	33.522440800911	822
8	6825	33.528761384216	211
8	6989	33.879652828066	797
8	7035	33.922712790436	851
8	7247	34.322440779791	880
8	7315	34.428761391387	265
8	7364	34.479652815368	796
8	7555	34.822712766305	910
8	7681	35.079652803886	797
8	7834	35.322712752678	944
8	7863	35.328761399311	320
8	8027	35.679652793759	798
8	8111	35.822712738847	977
8	8324	36.228761407772	374
8	8373	36.279652785125	797
8	8419	36.322712724935	1006
8	8631	36.722440713746	1033
8	8719	36.879652778129	796
8	8872	37.122712702589	1053
8	8901	37.128761416672	429
8	9065	37.479652772892	797
8	9111	37.522440691469	1076
8	9323	37.922712680328	1101
8	9391	38.028761425916	477
8	9440	38.079652769555	796
8	9593	38.322440669072	1124
8	9757	38.679652768199	796
8	9803	38.72271265826	1154
8	9940	38.928761435422	529
8	10044	39.12244064759	1176
8	10132	39.279652768813	799
8	10285	39.52271263716	1199
8	10352	39.622440634885	1109
8	10419	39.722440632915	1019
8	10448	39.728761444111	575
8	10515	39.822440631245	929
8	10565	39.879652771419	798
8	10611	39.922440629873	839
8	10678	40.022712628641	800
8	10776	40.122440627437	799
8	10843	40.222440626262	798
8	10911	40.328761449405	615
8	10998	40.479652775909	799
8	11189	40.822712619765	800
8	11218	40.82876145304	655
8	11324	41.028489453011	668
8	11373	41.079652782212	796
8	11458	41.228489452941	682
8	11593	41.422712614267	799
8	11622	41.428761452035	692
8	11690	41.528489450789	698
8	11757	41.628489449525	704
8	11811	41.679652790207	796
8	11853	41.728489448244	710
8	11920	41.828489446951	715
8	12018	41.9287614456	720
8	12084	42.022712609817	799
8	12113	42.028489444201	726
8	12181	42.128489442801	730
8	12248	42.228489441396	734
8	12302	42.279652799778	796
8	12344	42.328489439985	739
8	12411	42.428761438572	745
8	12509	42.52848943715	752
8	12575	42.622712606448	796
8	12604	42.628489437494	758
8	12672	42.728489439046	766
8	12739	42.828489437661	772
8	12793	42.879652810769	800
8	12979	43.222712604183	798
8	13008	43.228761432068	800
8	13139	43.479652823049	796
8	13219	43.628489426418	823
8	13354	43.82271260302	799
8	13460	44.028761420741	846
8	13514	44.079652836445	796
8	13700	44.422712602977	797
8	13729	44.428489415037	875
8	13860	44.679652850855	796
8	14009	44.928761408073	906
8	14075	45.022712604078	796
8	14130	45.079380860965	717
8	14235	45.279652866169	633
8	14315	45.428761401143	937
8	14371	45.479380870905	591
8	14479	45.622712606258	799
8	14534	45.679380875692	590
8	14639	45.879652879253	589
8	14681	45.928761394287	969
8	14775	46.079380882385	593
8	14871	46.179380883392	590
8	14912	46.222712609528	799
8	14967	46.279380884397	593
8	15034	46.379652885342	592
8	15076	46.428761387514	1001
8	15130	46.47938088605	592
8	15197	46.579380886767	590
8	15266	46.679380887488	590
8	15362	46.779380888196	593
8	15403	46.822712613903	799
8	15432	46.828489382212	1028
8	15487	46.879652888862	599
8	15554	46.979380889499	607
8	15621	47.079380890121	612
8	15688	47.179380890715	619
8	15730	47.228761377055	1048
8	15786	47.279380891299	625
8	15882	47.379652891859	630
8	15923	47.422712619321	797
8	15978	47.479380892405	634
8	16058	47.628489372094	1070
8	16269	48.022712625765	797
8	16298	48.028761367188	1096
8	16391	48.179652895624	679
8	16509	48.428489362316	1118
8	16644	48.622712633415	799
8	16737	48.779652897611	713
8	16779	48.828761358457	1140
8	16990	49.222712642045	798
8	17019	49.228489354955	1162
8	17112	49.379652898913	750
8	17230	49.628761351771	1183
8	17365	49.822712651539	799
8	17458	49.979652899428	787
8	17500	50.028489349065	1197
8	17711	50.422712661974	799
8	17740	50.428761346969	1196
8	17833	50.579652899405	797
8	17951	50.828489345399	1199
8	18086	51.022712673121	797
8	18179	51.179652899385	797
8	18221	51.228761344375	1197
8	18432	51.622712684951	798
8	18461	51.628489343906	1199
8	18554	51.77965289934	798
8	18672	52.028761343976	1196
8	18807	52.222712697413	798
8	18905	52.379652899312	799
8	18942	52.428489344608	1198
8	19153	52.822712710469	800
8	19182	52.828761345784	1198
8	19280	52.979652899293	799
8	19393	53.228489347502	1198
8	19528	53.422712724087	796
8	19626	53.579652899287	797
8	19663	53.628761349773	1196
8	19874	54.022712738229	799
8	19903	54.028489352582	1196
8	20001	54.179652899291	797
8	20114	54.428761355898	1199
8	20249	54.622712752841	800
8	20347	54.779652899277	796
8	20384	54.828489359752	1197
8	20595	55.222712767907	799
8	20624	55.228761364104	1200
8	20722	55.379652899271	799
8	20835	55.628489368973	1198
7	490	10.279652610472	39256
7	534	10.479380614499	39456
7	561	10.679380618507	39656
7	605	10.879652622028	39856
7	785	11.779652632185	40756
7	1000	12.679652627043	41656
7	1113	13.579652621973	42556
7	1210	14.47965262228	43456
7	1305	15.379652629202	44356
7	1385	16.27965264414	45256
7	1497	17.179652666406	46156
7	1594	18.079652695104	47056
7	1690	18.97965272879	47956
7	1781	19.779652762561	48756
7	1847	20.222712407026	49256
7	1901	20.379652788378	49356
7	1930	20.422440413924	49456
7	1967	20.622440420881	49656
7	2027	20.822712427896	49856
7	2052	20.879652809851	49856
7	2089	21.079380817156	50056
7	2149	21.279380824529	50256
7	2186	21.479652830755	50456
7	2238	21.579380832943	50556
7	2269	21.679380835128	50656
7	2297	21.722712460177	50756
7	2322	21.779380837313	50756
7	2352	21.879380839485	50856
7	2404	21.979652841236	50956
7	2435	22.0793808428	51056
7	2465	22.179380844343	51156
7	2495	22.279380845889	51256
7	2547	22.379380847428	51356
7	2578	22.479652848954	51456
7	2606	22.522712489801	51556
7	2631	22.579380850501	51556
7	2661	22.679380854669	51656
7	2713	22.779380858567	51756
7	2744	22.879380860059	51856
7	2818	23.27965286582	52256
7	2846	23.322712520277	52356
7	2915	23.679380871269	52656
7	2989	24.079652876445	53056
7	3017	24.122712551585	53156
7	3086	24.479380881295	53456
7	3165	24.922712583755	53956
7	3190	24.97965288685	53956
7	3271	25.479652891901	54456
7	3336	25.722712616796	54756
7	3397	25.97965289644	54956
7	3479	26.479652900436	55456
7	3507	26.522712650641	55556
7	3583	26.979652903941	55956
7	3655	27.322712685385	56356
7	3680	27.379380906358	56356
7	3754	27.779652908496	56756
7	3828	28.17938091033	57156
7	3856	28.222712725418	57256
7	3925	28.579652911902	57556
7	3999	28.979380913122	57956
7	4027	29.022712762042	58056
7	4096	29.379652913998	58356
7	4170	29.779380914421	58756
7	4198	29.822712798737	58856
7	4297	30.179652912683	59156
7	4333	30.228761338081	59256
7	4408	30.422712821486	59456
7	4437	30.428489343792	59456
7	4507	30.579380908324	59556
7	4543	30.628489348946	59656
7	4618	30.822440832309	59856
7	4647	30.828761353561	59856
7	4717	30.979652901698	59956
7	4752	31.022712836336	60056
7	4828	31.222440840169	60256
7	4895	31.322440840922	60356
7	4927	31.379380894087	60356
7	4962	31.422440841155	60456
7	5029	31.522712840737	60556
7	5096	31.622440840191	60656
7	5163	31.722440839628	60756
7	5192	31.728761371998	60756
7	5252	31.779652883822	60756
7	5288	31.822440837831	60856
7	5355	31.922440835764	60956
7	5422	32.022712833686	61056
7	5484	32.079380873218	61056
7	5549	32.122440831391	61156
7	5611	32.179380870009	61156
7	5676	32.222440828938	61256
7	5737	32.279652866978	61256
7	5773	32.322440826467	61356
7	5835	32.379380864264	61356
7	5900	32.422440823985	61456
7	5962	32.479380861694	61456
7	6027	32.522712823878	61556
7	6088	32.579380859142	61556
7	6124	32.622440823978	61656
7	6153	32.628761378115	61656
7	6215	32.679380856614	61656
7	6280	32.722440821443	61756
7	6555	33.122712811242	62156
7	6648	33.279652841896	62256
7	6796	33.522440800911	62556
7	6825	33.528761384216	62556
7	6989	33.879652828066	62856
7	7035	33.922712790436	62956
7	7247	34.322440779791	63356
7	7315	34.428761391387	63456
7	7364	34.479652815368	63456
7	7555	34.822712766305	63856
7	7681	35.079652803886	64056
7	7834	35.322712752678	64356
7	7863	35.328761399311	64356
7	8027	35.679652793759	64656
7	8111	35.822712738847	64856
7	8324	36.228761407772	65256
7	8373	36.279652785125	65256
7	8419	36.322712724935	65356
7	8631	36.722440713746	220
7	8719	36.879652778129	320
7	8872	37.122712702589	620
7	8901	37.128761416672	620
7	9065	37.479652772892	920
7	9111	37.522440691469	1020
7	9323	37.922712680328	1420
7	9391	38.028761425916	1520
7	9440	38.079652769555	1520
7	9593	38.322440669072	1820
7	9757	38.679652768199	2120
7	9803	38.72271265826	2220
7	9940	38.928761435422	2420
7	10044	39.12244064759	2620
7	10132	39.279652768813	2720
7	10285	39.52271263716	3020
7	10352	39.622440634885	3120
7	10419	39.722440632915	3220
7	10448	39.728761444111	3220
7	10515	39.822440631245	3320
7	10565	39.879652771419	3320
7	10611	39.922440629873	3420
7	10678	40.022712628641	3520
7	10776	40.122440627437	3620
7	10843	40.222440626262	3720
7	10911	40.328761449405	3820
7	10998	40.479652775909	3920
7	11189	40.822712619765	4320
7	11218	40.82876145304	4320
7	11324	41.028489453011	4520
7	11373	41.079652782212	4520
7	11458	41.228489452941	4720
7	11593	41.422712614267	4920
7	11622	41.428761452035	4920
7	11690	41.528489450789	5020
7	11757	41.628489449525	5120
7	11811	41.679652790207	5120
7	11853	41.728489448244	5220
7	11920	41.828489446951	5320
7	12018	41.9287614456	5420
7	12084	42.022712609817	5520
7	12113	42.028489444201	5520
7	12181	42.128489442801	5620
7	12248	42.228489441396	5720
7	12302	42.279652799778	5720
7	12344	42.328489439985	5820
7	12411	42.428761438572	5920
7	12509	42.52848943715	6020
7	12575	42.622712606448	6120
7	12604	42.628489437494	6120
7	12672	42.728489439046	6220
7	12739	42.828489437661	6320
7	12793	42.879652810769	6320
7	12979	43.222712604183	6720
7	13008	43.228761432068	6720
7	13139	43.479652823049	6920
7	13219	43.628489426418	7120
7	13354	43.82271260302	7320
7	13460	44.028761420741	7520
7	13514	44.079652836445	7520
7	13700	44.422712602977	7920
7	13729	44.428489415037	7920
7	13860	44.679652850855	8120
7	14009	44.928761408073	8420
7	14075	45.022712604078	8520
7	14130	45.079380860965	8520
7	14235	45.279652866169	8720
7	14315	45.428761401143	8920
7	14371	45.479380870905	8920
7	14479	45.622712606258	9120
7	14534	45.679380875692	9120
7	14639	45.879652879253	9320
7	14681	45.928761394287	9420
7	14775	46.079380882385	9520
7	14871	46.179380883392	9620
7	14912	46.222712609528	9720
7	14967	46.279380884397	9720
7	15034	46.379652885342	9820
7	15076	46.428761387514	9920
7	15130	46.47938088605	9920
7	15197	46.579380886767	10020
7	15266	46.679380887488	10120
7	15362	46.779380888196	10220
7	15403	46.822712613903	10320
7	15432	46.828489382212	10320
7	15487	46.879652888862	10320
7	15554	46.979380889499	10420
7	15621	47.079380890121	10520
7	15688	47.179380890715	10620
7	15730	47.228761377055	10720
7	15786	47.279380891299	10720
7	15882	47.379652891859	10820
7	15923	47.422712619321	10920
7	15978	47.479380892405	10920
7	16058	47.628489372094	11120
7	16269	48.022712625765	11520
7	16298	48.028761367188	11520
7	16391	48.179652895624	11620
7	16509	48.428489362316	11920
7	16644	48.622712633415	12120
7	16737	48.779652897611	12220
7	16779	48.828761358457	12320
7	16990	49.222712642045	12720
7	17019	49.228489354955	12720
7	17112	49.379652898913	12820
7	17230	49.628761351771	13120
7	17365	49.822712651539	13320
7	17458	49.979652899428	13420
7	17500	50.028489349065	13520
7	17711	50.422712661974	13920
7	17740	50.428761346969	13920
7	17833	50.579652899405	14020
7	17951	50.828489345399	14320
7	18086	51.022712673121	14520
7	18179	51.179652899385	14620
7	18221	51.228761344375	14720
7	18432	51.622712684951	15120
7	18461	51.628489343906	15120
7	18554	51.77965289934	15220
7	18672	52.028761343976	15520
7	18807	52.222712697413	15720
7	18905	52.379652899312	15820
7	18942	52.428489344608	15920
7	19153	52.822712710469	16320
7	19182	52.828761345784	16320
7	19280	52.979652899293	16420
7	19393	53.228489347502	16720
7	19528	53.422712724087	16920
7	19626	53.579652899287	17020
7	19663	53.628761349773	17120
7	19874	54.022712738229	17520
7	19903	54.028489352582	17520
7	20001	54.179652899291	17620
7	20114	54.428761355898	17920
7	20249	54.622712752841	18120
7	20347	54.779652899277	18220
7	20384	54.828489359752	18320
7	20595	55.222712767907	18720
7	20624	55.228761364104	18720
7	20722	55.379652899271	18820
7	20835	55.628489368973	19120
3	474	10.279172503343	2051556033
3	518	10.479172503343	2051556033
3	545	10.679172503343	2051556033
3	589	10.879172503343	2051556033
3	769	11.779172503343	2051556033
3	984	12.679172503343	2051556033
3	1097	13.579172503343	2051556033
3	1194	14.479172503343	2051556033
3	1289	15.379172503343	2051556033
3	1369	16.279172503343	2051556033
3	1481	17.179172503343	2051556033
3	1578	18.079172503343	2051556033
3	1674	18.979172503343	2051556033
3	1765	19.779172503343	2051556033
3	1879	20.379172503343	2051556033
3	2030	20.879172503343	2051556033
3	2067	21.079172503343	2051556033
3	2127	21.279172503343	2051556033
3	2164	21.479172503343	2051556033
3	2216	21.579172503343	2051556033
3	2247	21.679172503343	2051556033
3	2300	21.779172503343	2051556033
3	2330	21.879172503343	2051556033
3	2382	21.979172503343	2051556033
3	2413	22.079172503343	2051556033
3	2443	22.179172503343	2051556033
3	2473	22.279172503343	2051556033
3	2525	22.379172503343	2051556033
3	2556	22.479172503343	2051556033
3	2609	22.579172503343	2051556033
3	2639	22.679172503343	2051556033
3	2691	22.779172503343	2051556033
3	2722	22.879172503343	2051556033
3	2796	23.279172503343	2051556033
3	2893	23.679172503343	2051556033
3	2967	24.079172503343	2051556033
3	3064	24.479172503343	2051556033
3	3168	24.979172503343	2051556033
3	3249	25.479172503343	2051556033
3	3375	25.979172503343	2051556033
3	3457	26.479172503343	2051556033
3	3561	26.979172503343	2051556033
3	3658	27.379172503343	2051556033
3	3732	27.779172503343	2051556033
3	3806	28.179172503343	2051556033
3	3903	28.579172503343	2051556033
3	3977	28.979172503343	2051556033
3	4074	29.379172503343	2051556033
3	4148	29.779172503343	2051556033
3	4269	30.179172503343	2051556033
3	4479	30.579172503343	2051556033
3	4689	30.979172503343	2051556033
3	4899	31.379172503343	2051556033
3	5224	31.779172503343	2051556033
3	5456	32.079172503343	2051556033
3	5583	32.179172503343	2051556033
3	5709	32.279172503343	2051556033
3	5807	32.379172503343	2051556033
3	5934	32.479172503343	2051556033
3	6060	32.579172503343	2051556033
3	6187	32.679172503343	2051556033
3	6625	33.279172503343	2051556033
3	6971	33.879172503343	2051556033
3	7346	34.479172503343	2051556033
3	7663	35.079172503343	2051556033
3	8009	35.679172503343	2051556033
3	8355	36.279172503343	2051556033
3	8701	36.879172503343	2051556033
3	9047	37.479172503343	2051556033
3	9422	38.079172503343	2051556033
3	9739	38.679172503343	2051556033
3	10114	39.279172503343	2051556033
3	10547	39.879172503343	2051556033
3	10980	40.479172503343	2051556033
3	11355	41.079172503343	2051556033
3	11788	41.679172503343	2051556033
3	12279	42.279172503343	2051556033
3	12770	42.879172503343	2051556033
3	13116	43.479172503343	2051556033
3	13491	44.079172503343	2051556033
3	13837	44.679172503343	2051556033
3	14107	45.079172503343	2051556033
3	14212	45.279172503343	2051556033
3	14348	45.479172503343	2051556033
3	14511	45.679172503343	2051556033
3	14616	45.879172503343	2051556033
3	14752	46.079172503343	2051556033
3	14848	46.179172503343	2051556033
3	14944	46.279172503343	2051556033
3	15011	46.379172503343	2051556033
3	15107	46.479172503343	2051556033
3	15174	46.579172503343	2051556033
3	15243	46.679172503343	2051556033
3	15339	46.779172503343	2051556033
3	15464	46.879172503343	2051556033
3	15531	46.979172503343	2051556033
3	15598	47.079172503343	2051556033
3	15665	47.179172503343	2051556033
3	15763	47.279172503343	2051556033
3	15859	47.379172503343	2051556033
3	15955	47.479172503343	2051556033
3	16368	48.179172503343	2051556033
3	16714	48.779172503343	2051556033
3	17089	49.379172503343	2051556033
3	17435	49.979172503343	2051556033
3	17810	50.579172503343	2051556033
3	18156	51.179172503343	2051556033
3	18531	51.779172503343	2051556033
3	18877	52.379172503343	2051556033
3	19252	52.979172503343	2051556033
3	19598	53.579172503343	2051556033
3	19973	54.179172503343	2051556033
3	20319	54.779172503343	2051556033
3	20694	55.379172503343	2051556033
3	20942	55.979172503343	2051556033
3	21122	56.579172503343	2051556033
3	21348	57.179172503343	2051556033
3	21597	57.779172503343	2051556033
3	21754	58.379172503343	2051556033
3	21888	58.979172503343	2051556033
3	21999	59.579172503343	2051556033
3	22156	60.179172503343	2051556033
3	22313	60.779172503343	2051556033
3	22470	61.379172503343	2051556033
3	22673	61.979172503343	2051556033
3	22899	62.579172503343	2051556033
3	23056	63.179172503343	2051556033
3	23167	63.779172503343	2051556033
3	23278	64.379172503343	2051556033
3	23389	64.979172503343	2051556033
3	23523	65.579172503343	2051556033
3	23634	66.179172503343	2051556033
3	23745	66.779172503343	2051556033
3	23856	67.379172503343	2051556033
3	23990	67.979172503343	2051556033
3	24101	68.579172503343	2051556033
3	24235	69.179172503343	2051556033
3	24346	69.779172503343	2051556033
3	24480	70.379172503343	2051556033
5	474	10.279172503343	8
5	518	10.479172503343	23
5	545	10.679172503343	39
5	589	10.879172503343	54
5	769	11.779172503343	109
5	984	12.679172503343	160
5	1097	13.579172503343	212
5	1194	14.479172503343	267
5	1289	15.379172503343	319
5	1369	16.279172503343	368
5	1481	17.179172503343	422
5	1578	18.079172503343	476
5	1674	18.979172503343	527
5	1765	19.779172503343	577
5	1879	20.379172503343	617
5	2030	20.879172503343	657
5	2067	21.079172503343	670
5	2127	21.279172503343	682
5	2164	21.479172503343	696
5	2216	21.579172503343	704
5	2247	21.679172503343	710
5	2300	21.779172503343	715
5	2330	21.879172503343	722
5	2382	21.979172503343	727
5	2413	22.079172503343	734
5	2443	22.179172503343	742
5	2473	22.279172503343	742
5	2525	22.379172503343	744
5	2556	22.479172503343	744
5	2609	22.579172503343	742
5	2639	22.679172503343	742
5	2691	22.779172503343	746
5	2722	22.879172503343	751
5	2796	23.279172503343	776
5	2893	23.679172503343	799
5	2967	24.079172503343	819
5	3064	24.479172503343	846
5	3168	24.979172503343	875
5	3249	25.479172503343	906
5	3375	25.979172503343	939
5	3457	26.479172503343	972
5	3561	26.979172503343	999
5	3658	27.379172503343	1027
5	3732	27.779172503343	1047
5	3806	28.179172503343	1068
5	3903	28.579172503343	1094
5	3977	28.979172503343	1115
5	4074	29.379172503343	1141
5	4148	29.779172503343	1168
5	4269	30.179172503343	1190
5	4479	30.579172503343	1200
5	4689	30.979172503343	1196
5	4899	31.379172503343	1199
5	5224	31.779172503343	1199
5	5456	32.079172503343	1107
5	5583	32.179172503343	1017
5	5709	32.279172503343	927
5	5807	32.379172503343	837
5	5934	32.479172503343	799
5	6060	32.579172503343	799
5	6187	32.679172503343	797
5	6625	33.279172503343	797
5	6971	33.879172503343	797
5	7346	34.479172503343	796
5	7663	35.079172503343	797
5	8009	35.679172503343	798
5	8355	36.279172503343	797
5	8701	36.879172503343	796
5	9047	37.479172503343	797
5	9422	38.079172503343	796
5	9739	38.679172503343	796
5	10114	39.279172503343	799
5	10547	39.879172503343	798
5	10980	40.479172503343	799
5	11355	41.079172503343	796
5	11788	41.679172503343	796
5	12279	42.279172503343	796
5	12770	42.879172503343	800
5	13116	43.479172503343	796
5	13491	44.079172503343	796
5	13837	44.679172503343	796
5	14107	45.079172503343	717
5	14212	45.279172503343	633
5	14348	45.479172503343	591
5	14511	45.679172503343	590
5	14616	45.879172503343	589
5	14752	46.079172503343	593
5	14848	46.179172503343	590
5	14944	46.279172503343	593
5	15011	46.379172503343	592
5	15107	46.479172503343	592
5	15174	46.579172503343	590
5	15243	46.679172503343	590
5	15339	46.779172503343	593
5	15464	46.879172503343	599
5	15531	46.979172503343	607
5	15598	47.079172503343	612
5	15665	47.179172503343	619
5	15763	47.279172503343	625
5	15859	47.379172503343	630
5	15955	47.479172503343	634
5	16368	48.179172503343	679
5	16714	48.779172503343	713
5	17089	49.379172503343	750
5	17435	49.979172503343	787
5	17810	50.579172503343	797
5	18156	51.179172503343	797
5	18531	51.779172503343	798
5	18877	52.379172503343	799
5	19252	52.979172503343	799
5	19598	53.579172503343	797
5	19973	54.179172503343	797
5	20319	54.779172503343	796
5	20694	55.379172503343	799
5	20942	55.979172503343	797
5	21122	56.579172503343	796
5	21348	57.179172503343	797
5	21597	57.779172503343	799
5	21754	58.379172503343	797
5	21888	58.979172503343	797
5	21999	59.579172503343	797
5	22156	60.179172503343	797
5	22313	60.779172503343	799
5	22470	61.379172503343	798
5	22673	61.979172503343	797
5	22899	62.579172503343	800
5	23056	63.179172503343	798
5	23167	63.779172503343	800
5	23278	64.379172503343	797
5	23389	64.979172503343	797
5	23523	65.579172503343	797
5	23634	66.179172503343	799
5	23745	66.779172503343	798
5	23856	67.379172503343	797
5	23990	67.979172503343	796
5	24101	68.579172503343	799
5	24235	69.179172503343	797
5	24346	69.779172503343	798
5	24480	70.379172503343	799
4	474	10.279172503343	39256
4	518	10.479172503343	39456
4	545	10.679172503343	39656
4	589	10.879172503343	39856
4	769	11.779172503343	40756
4	984	12.679172503343	41656
4	1097	13.579172503343	42556
4	1194	14.479172503343	43456
4	1289	15.379172503343	44356
4	1369	16.279172503343	45256
4	1481	17.179172503343	46156
4	1578	18.079172503343	47056
4	1674	18.979172503343	47956
4	1765	19.779172503343	48756
4	1879	20.379172503343	49356
4	2030	20.879172503343	49856
4	2067	21.079172503343	50056
4	2127	21.279172503343	50256
4	2164	21.479172503343	50456
4	2216	21.579172503343	50556
4	2247	21.679172503343	50656
4	2300	21.779172503343	50756
4	2330	21.879172503343	50856
4	2382	21.979172503343	50956
4	2413	22.079172503343	51056
4	2443	22.179172503343	51156
4	2473	22.279172503343	51256
4	2525	22.379172503343	51356
4	2556	22.479172503343	51456
4	2609	22.579172503343	51556
4	2639	22.679172503343	51656
4	2691	22.779172503343	51756
4	2722	22.879172503343	51856
4	2796	23.279172503343	52256
4	2893	23.679172503343	52656
4	2967	24.079172503343	53056
4	3064	24.479172503343	53456
4	3168	24.979172503343	53956
4	3249	25.479172503343	54456
4	3375	25.979172503343	54956
4	3457	26.479172503343	55456
4	3561	26.979172503343	55956
4	3658	27.379172503343	56356
4	3732	27.779172503343	56756
4	3806	28.179172503343	57156
4	3903	28.579172503343	57556
4	3977	28.979172503343	57956
4	4074	29.379172503343	58356
4	4148	29.779172503343	58756
4	4269	30.179172503343	59156
4	4479	30.579172503343	59556
4	4689	30.979172503343	59956
4	4899	31.379172503343	60356
4	5224	31.779172503343	60756
4	5456	32.079172503343	61056
4	5583	32.179172503343	61156
4	5709	32.279172503343	61256
4	5807	32.379172503343	61356
4	5934	32.479172503343	61456
4	6060	32.579172503343	61556
4	6187	32.679172503343	61656
4	6625	33.279172503343	62256
4	6971	33.879172503343	62856
4	7346	34.479172503343	63456
4	7663	35.079172503343	64056
4	8009	35.679172503343	64656
4	8355	36.279172503343	65256
4	8701	36.879172503343	320
4	9047	37.479172503343	920
4	9422	38.079172503343	1520
4	9739	38.679172503343	2120
4	10114	39.279172503343	2720
4	10547	39.879172503343	3320
4	10980	40.479172503343	3920
4	11355	41.079172503343	4520
4	11788	41.679172503343	5120
4	12279	42.279172503343	5720
4	12770	42.879172503343	6320
4	13116	43.479172503343	6920
4	13491	44.079172503343	7520
4	13837	44.679172503343	8120
4	14107	45.079172503343	8520
4	14212	45.279172503343	8720
4	14348	45.479172503343	8920
4	14511	45.679172503343	9120
4	14616	45.879172503343	9320
4	14752	46.079172503343	9520
4	14848	46.179172503343	9620
4	14944	46.279172503343	9720
4	15011	46.379172503343	9820
4	15107	46.479172503343	9920
4	15174	46.579172503343	10020
4	15243	46.679172503343	10120
4	15339	46.779172503343	10220
4	15464	46.879172503343	10320
4	15531	46.979172503343	10420
4	15598	47.079172503343	10520
4	15665	47.179172503343	10620
4	15763	47.279172503343	10720
4	15859	47.379172503343	10820
4	15955	47.479172503343	10920
4	16368	48.179172503343	11620
4	16714	48.779172503343	12220
4	17089	49.379172503343	12820
4	17435	49.979172503343	13420
4	17810	50.579172503343	14020
4	18156	51.179172503343	14620
4	18531	51.779172503343	15220
4	18877	52.379172503343	15820
4	19252	52.979172503343	16420
4	19598	53.579172503343	17020
4	19973	54.179172503343	17620
4	20319	54.779172503343	18220
4	20694	55.379172503343	18820
4	20942	55.979172503343	19420
4	21122	56.579172503343	20020
4	21348	57.179172503343	20620
4	21597	57.779172503343	21220
4	21754	58.379172503343	21820
4	21888	58.979172503343	22420
4	21999	59.579172503343	23020
4	22156	60.179172503343	23620
4	22313	60.779172503343	24220
4	22470	61.379172503343	24820
4	22673	61.979172503343	25420
4	22899	62.579172503343	26020
4	23056	63.179172503343	26620
4	23167	63.779172503343	27220
4	23278	64.379172503343	27820
4	23389	64.979172503343	28420
4	23523	65.579172503343	29020
4	23634	66.179172503343	29620
4	23745	66.779172503343	30220
4	23856	67.379172503343	30820
4	23990	67.979172503343	31420
4	24101	68.579172503343	32020
4	24235	69.179172503343	32620
4	24346	69.779172503343	33220
4	24480	70.379172503343	33820
9	511	10.371999045639	2546248239
9	582	10.771727053424	2546248239
9	626	10.971999056947	2546248239
9	653	11.171727060511	2546248239
9	680	11.371727062953	2546248239
9	702	11.471999063512	2546248239
9	724	11.571727064094	2546248239
9	746	11.671727064704	2546248239
9	768	11.771727065339	2546248239
9	807	11.871727064854	2546248239
9	829	11.971999064145	2546248239
9	851	12.071727063462	2546248239
9	873	12.171727062805	2546248239
9	895	12.271727062183	2546248239
9	917	12.371727061599	2546248239
9	939	12.47199906105	2546248239
9	961	12.571727060764	2546248239
9	983	12.671727060197	2546248239
9	1022	12.771727059433	2546248239
9	1059	13.171999056834	2546248239
9	1096	13.571727055127	2546248239
9	1150	13.971999054513	2546248239
9	1187	14.371727055142	2546248239
9	1246	14.871999057528	2546248239
9	1288	15.371999062356	2546248239
9	1347	15.871999069685	2546248239
9	1406	16.371999079428	2546248239
9	1443	16.771727088826	2546248239
9	1480	17.17199909956	2546248239
9	1534	17.571727111514	2546248239
9	1571	17.971999124741	2546248239
9	1625	18.371727139128	2546248239
9	1662	18.771999154081	2546248239
9	1716	19.171727170052	2546248239
9	1753	19.57199918695	2546248239
9	1807	19.971727204196	2546248239
9	1842	20.222712243262	2628931110
9	1878	20.371999221532	2546248239
9	1925	20.422440247257	2628931110
9	1962	20.622440251267	2628931110
9	1998	20.771727239323	2546248239
9	2022	20.822712255052	2628931110
9	2118	21.171999253985	2546248239
9	2215	21.571727266097	2546248239
9	2292	21.722712266459	2628931110
9	2381	21.97199927439	2546248239
9	2524	22.371727280582	2546248239
9	2601	22.522712262823	2628931110
9	2685	22.771999291721	2546248239
9	2782	23.171727297557	2546248239
9	2841	23.322712257818	2628931110
9	2879	23.571999303095	2546248239
9	2953	23.97172730833	2546248239
9	3012	24.122712255384	2628931110
9	3050	24.37199931327	2546248239
9	3124	24.771727317842	2546248239
9	3160	24.922712257427	2628931110
9	3221	25.171999322084	2546248239
9	3295	25.571727326011	2546248239
9	3331	25.722712265234	2628931110
9	3369	25.971999329594	2546248239
9	3443	26.371727332831	2546248239
9	3502	26.522712279442	2628931110
9	3540	26.771999335759	2546248239
9	3614	27.171727338353	2546248239
9	3650	27.322712299518	2628931110
9	3711	27.571999340614	2546248239
9	3785	27.971727342602	2546248239
9	3851	28.222712328183	2628931110
9	3882	28.371999344306	2546248239
9	3956	28.771727345708	2546248239
9	4022	29.022712358025	2628931110
9	4053	29.171999346753	2546248239
9	4127	29.571727347459	2546248239
9	4193	29.822712390879	2628931110
9	4217	29.871999347392	2546248239
9	4254	30.07172734652	2546248239
9	4328	30.228760954352	1897133962
9	4353	30.271727344982	2546248239
9	4403	30.422712416754	2628931110
9	4432	30.428488961167	1897133962
9	4458	30.471999342796	2546248239
9	4538	30.628488968037	1897133962
9	4563	30.671727340019	2546248239
9	4613	30.82244043305	2628931110
9	4642	30.828760974968	1897133962
9	4668	30.871727336633	2546248239
9	4747	31.02271244035	2628931110
9	4773	31.071999333074	2546248239
9	4823	31.222440447732	2628931110
9	4849	31.271727329281	2546248239
9	4890	31.322440450433	2628931110
9	4957	31.422440452632	2628931110
9	4983	31.471727325204	2546248239
9	5024	31.522712454816	2628931110
9	5050	31.57199932253	2546248239
9	5091	31.622440456992	2628931110
9	5117	31.671727319752	2546248239
9	5158	31.722440459169	2628931110
9	5187	31.728761006896	1897133962
9	5213	31.771727316976	2546248239
9	5283	31.822440460999	2628931110
9	5309	31.871727313332	2546248239
9	5350	31.922440462566	2628931110
9	5417	32.022712463819	2628931110
9	5442	32.031726369875	2546248239
9	5544	32.122440464749	2628931110
9	5570	32.151998366666	2546248239
9	5671	32.222440465354	2628931110
9	5698	32.271726363635	2546248239
9	5768	32.322440465636	2628931110
9	5895	32.422440465774	2628931110
9	5921	32.451726358351	2546248239
9	6022	32.522712468276	2628931110
9	6049	32.571726355799	2546248239
9	6119	32.622440470972	2628931110
9	6148	32.6287610335	1897133962
9	6275	32.722440471025	2628931110
9	6301	32.751998350761	2546248239
9	6371	32.871726348272	2546248239
9	6478	33.051726343364	2546248239
9	6550	33.122712471072	2628931110
9	6719	33.43199833383	2546248239
9	6791	33.522440470836	2628931110
9	6820	33.528761056287	1897133962
9	7030	33.922712470281	2628931110
9	7094	34.03199832036	2546248239
9	7242	34.322440469359	2628931110
9	7310	34.428761079873	1897133962
9	7440	34.631998308054	2546248239
9	7550	34.822712467672	2628931110
9	7757	35.231998297012	2546248239
9	7829	35.322712465482	2628931110
9	7858	35.328761104328	1897133962
9	8106	35.822712462702	2628931110
9	8131	35.831998287366	2546248239
9	8319	36.228761129722	1897133962
9	8414	36.322712459428	2628931110
9	8478	36.431998279263	2546248239
9	8626	36.722440456421	2628931110
9	8795	37.031998272835	2546248239
9	8867	37.122712453123	2628931110
9	8896	37.128761156118	1897133962
9	9106	37.522440449527	2628931110
9	9170	37.631998268216	2546248239
9	9318	37.922712445652	2628931110
9	9386	38.028761183557	1897133962
9	9516	38.231998265538	2546248239
9	9588	38.322440441462	2628931110
9	9798	38.722712436851	2628931110
9	9862	38.831998264843	2546248239
9	9935	38.928761211997	1897133962
9	10039	39.122440431907	2628931110
9	10208	39.431998266116	2546248239
9	10280	39.522712426658	2628931110
9	10347	39.62244042562	2628931110
9	10414	39.722440424885	2628931110
9	10443	39.728761238337	1897133962
9	10510	39.82244042445	2628931110
9	10606	39.92244042431	2628931110
9	10673	40.022712424299	2628931110
9	10698	40.031998269377	2546248239
9	10771	40.122440424297	2628931110
9	10838	40.222440424293	2628931110
9	10906	40.328761257466	1897133962
9	11074	40.631998274476	2546248239
9	11179	40.822712424306	2628931110
9	11213	40.828761273093	1897133962
9	11319	41.028489277942	1897133962
9	11453	41.228489282815	1897133962
9	11477	41.231998281347	2546248239
9	11583	41.422712424316	2628931110
9	11617	41.428761286683	1897133962
9	11685	41.528489287595	1897133962
9	11752	41.628489288489	1897133962
9	11848	41.728489289378	1897133962
9	11915	41.828489290254	1897133962
9	11939	41.831998289882	2546248239
9	12013	41.92876129079	1897133962
9	12074	42.022712424298	2628931110
9	12108	42.028489291052	1897133962
9	12176	42.128489291305	1897133962
9	12243	42.228489291535	1897133962
9	12339	42.328489291755	1897133962
9	12406	42.42876129195	1897133962
9	12430	42.431998299947	2546248239
9	12504	42.528489292128	1897133962
9	12565	42.622712424309	2628931110
9	12599	42.628489294131	1897133962
9	12667	42.728489297413	1897133962
9	12734	42.82848929751	1897133962
9	12864	43.031998311387	2546248239
9	12969	43.222712424351	2628931110
9	13003	43.228761297638	1897133962
9	13214	43.628489297429	1897133962
9	13238	43.631998324052	2546248239
9	13344	43.822712424358	2628931110
9	13455	44.028761296908	1897133962
9	13585	44.2319983378	2546248239
9	13690	44.422712424368	2628931110
9	13724	44.428489296055	1897133962
9	13931	44.831998352516	2546248239
9	14004	44.928761294329	1897133962
9	14065	45.022712423988	2628931110
9	14310	45.428761289589	1897133962
9	14334	45.431998367562	2546248239
9	14469	45.622712420208	2628931110
9	14676	45.92876128281	1897133962
9	14739	46.031998379042	2546248239
9	14902	46.222712413068	2628931110
9	15071	46.428761271144	1897133962
9	15230	46.631998384145	2546248239
9	15393	46.822712399407	2628931110
9	15427	46.828489258408	1897133962
9	15725	47.228761244704	1897133962
9	15749	47.231998387956	2546248239
9	15913	47.422712384424	2628931110
9	16053	47.628489230876	1897133962
9	16154	47.831998391027	2546248239
9	16259	48.022712370419	2628931110
9	16293	48.028761216881	1897133962
9	16504	48.428489202755	1897133962
9	16528	48.431998393373	2546248239
9	16634	48.622712357665	2628931110
9	16774	48.828761188631	1897133962
9	16875	49.031998395023	2546248239
9	16980	49.222712346638	2628931110
9	17014	49.228489174534	1897133962
9	17225	49.628761160511	1897133962
9	17249	49.63199839592	2546248239
9	17355	49.822712337745	2628931110
9	17495	50.028489146641	1897133962
9	17596	50.231998396089	2546248239
9	17701	50.422712331379	2628931110
9	17735	50.428761133185	1897133962
9	17946	50.828489120175	1897133962
9	17970	50.831998396053	2546248239
9	18076	51.02271232761	2628931110
9	18216	51.228761107668	1897133962
9	18317	51.431998396014	2546248239
9	18422	51.62271232659	2628931110
9	18456	51.628489095715	1897133962
9	18667	52.028761084374	1897133962
9	18691	52.031998395976	2546248239
9	18797	52.222712328361	2628931110
9	18937	52.42848907368	1897133962
9	19038	52.631998395952	2546248239
9	19143	52.822712332817	2628931110
9	19177	52.828761063698	1897133962
9	19388	53.228489054494	1897133962
9	19412	53.231998395942	2546248239
9	19518	53.42271233982	2628931110
9	19658	53.628761046131	1897133962
9	19759	53.831998395942	2546248239
9	19864	54.022712349087	2628931110
9	19898	54.028489038661	1897133962
9	20109	54.428761032141	1897133962
9	20133	54.431998395922	2546248239
9	20244	54.622712360353	2628931110
9	20379	54.828489026639	1897133962
9	20480	55.031998395935	2546248239
9	20590	55.222712373331	2628931110
9	20619	55.228761022197	1897133962
9	20830	55.628489018834	1897133962
9	20854	55.631998395931	2546248239
9	20932	55.822712387749	2628931110
9	20992	56.022440392615	2628931110
9	21015	56.028761016697	1897133962
9	21052	56.222440397267	2628931110
9	21089	56.422712401262	2628931110
9	21112	56.428489015757	1897133962
9	21172	56.622440404507	2628931110
9	21202	56.722440405512	2628931110
9	21232	56.82244040639	2628931110
9	21255	56.828761015983	1897133962
9	21285	56.922712407278	2628931110
9	21315	57.022440407882	2628931110
9	21345	57.122440408443	2628931110
9	21398	57.222440409007	2628931110
9	21421	57.228489017408	1897133962
9	21451	57.322440409566	2628931110
9	21481	57.422712410084	2628931110
9	21511	57.522440410584	2628931110
9	21541	57.622440411056	2628931110
9	21564	57.628761020008	1897133962
9	21594	57.722440411508	2628931110
9	21647	57.822440411938	2628931110
9	21677	57.922712412342	2628931110
9	21707	58.022440412732	2628931110
9	21730	58.02848902375	1897133962
9	21805	58.428761028578	1897133962
9	21841	58.622712414654	2628931110
9	21879	58.828489034472	1897133962
9	21952	59.222712415834	2628931110
9	21975	59.228761041359	1897133962
9	22050	59.628489049182	1897133962
9	22086	59.822712416306	2628931110
9	22117	59.928761055674	1897133962
9	22154	60.128489060303	1897133962
9	22214	60.32848906513	1897133962
9	22243	60.422712416311	2628931110
9	22274	60.528761070121	1897133962
9	22311	60.728489075242	1897133962
9	22371	60.928489080374	1897133962
9	22400	61.022712416319	2628931110
9	22431	61.128761085052	1897133962
9	22468	61.32848908931	1897133962
9	22528	61.528489092447	1897133962
9	22557	61.622712416305	2628931110
9	22580	61.628761093466	1897133962
9	22611	61.728489094222	1897133962
9	22641	61.828489094985	1897133962
9	22671	61.928489095431	1897133962
9	22724	62.028489095843	1897133962
9	22754	62.128761096249	1897133962
9	22783	62.222712416278	2628931110
9	22806	62.228489096648	1897133962
9	22837	62.328489097009	1897133962
9	22867	62.428489097351	1897133962
9	22897	62.528489097674	1897133962
9	22950	62.628761097963	1897133962
9	22980	62.728489098222	1897133962
9	23009	62.822712416279	2628931110
9	23032	62.828489098469	1897133962
9	23120	63.42271241625	2628931110
9	23143	63.428761099479	1897133962
9	23231	64.022712416252	2628931110
9	23254	64.028761099822	1897133962
9	23336	64.52876109953	1897133962
9	23365	64.622712416215	2628931110
9	23440	65.028761098694	1897133962
9	23476	65.222712416198	2628931110
9	23521	65.528761097339	1897133962
9	23587	65.822712416184	2628931110
9	23625	66.028761095461	1897133962
9	23698	66.422712416171	2628931110
9	23729	66.528761093038	1897133962
9	23809	67.022712416142	2628931110
9	23832	67.028761090097	1897133962
9	23907	67.428489087361	1897133962
9	23943	67.622712416125	2628931110
9	23981	67.8287610843	1897133962
9	24054	68.222712416105	2628931110
9	24077	68.228489080902	1897133962
9	24152	68.628761077148	1897133962
9	24188	68.822712416079	2628931110
9	24226	69.028489073111	1897133962
9	24299	69.422712416068	2628931110
9	24322	69.428761068783	1897133962
9	24397	69.828489064151	1897133962
9	24433	70.022712416079	2628931110
9	24471	70.228761059429	1897133962
11	511	10.371999045639	622
11	582	10.771727053424	654
11	626	10.971999056947	667
11	653	11.171727060511	682
11	680	11.371727062953	697
11	702	11.471999063512	702
11	724	11.571727064094	707
11	746	11.671727064704	712
11	768	11.771727065339	718
11	807	11.871727064854	726
11	829	11.971999064145	732
11	851	12.071727063462	738
11	873	12.171727062805	743
11	895	12.271727062183	747
11	917	12.371727061599	754
11	939	12.47199906105	760
11	961	12.571727060764	767
11	983	12.671727060197	775
11	1022	12.771727059433	782
11	1059	13.171999056834	806
11	1096	13.571727055127	832
11	1150	13.971999054513	857
11	1187	14.371727055142	884
11	1246	14.871999057528	913
11	1288	15.371999062356	941
11	1347	15.871999069685	971
11	1406	16.371999079428	998
11	1443	16.771727088826	1019
11	1480	17.17199909956	1041
11	1534	17.571727111514	1065
11	1571	17.971999124741	1088
11	1625	18.371727139128	1113
11	1662	18.771999154081	1137
11	1716	19.171727170052	1164
11	1753	19.57199918695	1190
11	1807	19.971727204196	1197
11	1842	20.222712243262	8
11	1878	20.371999221532	1198
11	1925	20.422440247257	23
11	1962	20.622440251267	37
11	1998	20.771727239323	1198
11	2022	20.822712255052	50
11	2118	21.171999253985	1198
11	2215	21.571727266097	1198
11	2292	21.722712266459	106
11	2381	21.97199927439	1198
11	2524	22.371727280582	1200
11	2601	22.522712262823	159
11	2685	22.771999291721	1199
11	2782	23.171727297557	1196
11	2841	23.322712257818	207
11	2879	23.571999303095	1198
11	2953	23.97172730833	1200
11	3012	24.122712255384	253
11	3050	24.37199931327	1199
11	3124	24.771727317842	1196
11	3160	24.922712257427	306
11	3221	25.171999322084	1198
11	3295	25.571727326011	1198
11	3331	25.722712265234	353
11	3369	25.971999329594	1198
11	3443	26.371727332831	1197
11	3502	26.522712279442	398
11	3540	26.771999335759	1199
11	3614	27.171727338353	1199
11	3650	27.322712299518	444
11	3711	27.571999340614	1199
11	3785	27.971727342602	1199
11	3851	28.222712328183	499
11	3882	28.371999344306	1196
11	3956	28.771727345708	1198
11	4022	29.022712358025	542
11	4053	29.171999346753	1197
11	4127	29.571727347459	1197
11	4193	29.822712390879	586
11	4217	29.871999347392	1119
11	4254	30.07172734652	1029
11	4328	30.228760954352	8
11	4353	30.271727344982	940
11	4403	30.422712416754	628
11	4432	30.428488961167	22
11	4458	30.471999342796	850
11	4538	30.628488968037	38
11	4563	30.671727340019	760
11	4613	30.82244043305	659
11	4642	30.828760974968	50
11	4668	30.871727336633	670
11	4747	31.02271244035	674
11	4773	31.071999333074	669
11	4823	31.222440447732	685
11	4849	31.271727329281	666
11	4890	31.322440450433	692
11	4957	31.422440452632	700
11	4983	31.471727325204	670
11	5024	31.522712454816	706
11	5050	31.57199932253	668
11	5091	31.622440456992	713
11	5117	31.671727319752	667
11	5158	31.722440459169	719
11	5187	31.728761006896	102
11	5213	31.771727316976	666
11	5283	31.822440460999	725
11	5309	31.871727313332	669
11	5350	31.922440462566	732
11	5417	32.022712463819	736
11	5442	32.031726369875	669
11	5544	32.122440464749	744
11	5570	32.151998366666	667
11	5671	32.222440465354	751
11	5698	32.271726363635	668
11	5768	32.322440465636	758
11	5895	32.422440465774	763
11	5921	32.451726358351	674
11	6022	32.522712468276	771
11	6049	32.571726355799	680
11	6119	32.622440470972	775
11	6148	32.6287610335	156
11	6275	32.722440471025	782
11	6301	32.751998350761	692
11	6371	32.871726348272	699
11	6478	33.051726343364	706
11	6550	33.122712471072	802
11	6719	33.43199833383	741
11	6791	33.522440470836	822
11	6820	33.528761056287	211
11	7030	33.922712470281	851
11	7094	34.03199832036	779
11	7242	34.322440469359	880
11	7310	34.428761079873	265
11	7440	34.631998308054	800
11	7550	34.822712467672	910
11	7757	35.231998297012	796
11	7829	35.322712465482	944
11	7858	35.328761104328	320
11	8106	35.822712462702	977
11	8131	35.831998287366	798
11	8319	36.228761129722	374
11	8414	36.322712459428	1006
11	8478	36.431998279263	800
11	8626	36.722440456421	1033
11	8795	37.031998272835	799
11	8867	37.122712453123	1053
11	8896	37.128761156118	429
11	9106	37.522440449527	1076
11	9170	37.631998268216	800
11	9318	37.922712445652	1101
11	9386	38.028761183557	477
11	9516	38.231998265538	799
11	9588	38.322440441462	1124
11	9798	38.722712436851	1154
11	9862	38.831998264843	796
11	9935	38.928761211997	529
11	10039	39.122440431907	1176
11	10208	39.431998266116	798
11	10280	39.522712426658	1199
11	10347	39.62244042562	1109
11	10414	39.722440424885	1019
11	10443	39.728761238337	575
11	10510	39.82244042445	929
11	10606	39.92244042431	839
11	10673	40.022712424299	800
11	10698	40.031998269377	799
11	10771	40.122440424297	799
11	10838	40.222440424293	798
11	10906	40.328761257466	615
11	11074	40.631998274476	798
11	11179	40.822712424306	800
11	11213	40.828761273093	655
11	11319	41.028489277942	668
11	11453	41.228489282815	682
11	11477	41.231998281347	797
11	11583	41.422712424316	799
11	11617	41.428761286683	692
11	11685	41.528489287595	698
11	11752	41.628489288489	704
11	11848	41.728489289378	710
11	11915	41.828489290254	715
11	11939	41.831998289882	798
11	12013	41.92876129079	720
11	12074	42.022712424298	799
11	12108	42.028489291052	726
11	12176	42.128489291305	730
11	12243	42.228489291535	734
11	12339	42.328489291755	739
11	12406	42.42876129195	745
11	12430	42.431998299947	797
11	12504	42.528489292128	752
11	12565	42.622712424309	796
11	12599	42.628489294131	758
11	12667	42.728489297413	766
11	12734	42.82848929751	772
11	12864	43.031998311387	799
11	12969	43.222712424351	798
11	13003	43.228761297638	800
11	13214	43.628489297429	823
11	13238	43.631998324052	797
11	13344	43.822712424358	799
11	13455	44.028761296908	846
11	13585	44.2319983378	799
11	13690	44.422712424368	797
11	13724	44.428489296055	875
11	13931	44.831998352516	799
11	14004	44.928761294329	906
11	14065	45.022712423988	796
11	14310	45.428761289589	937
11	14334	45.431998367562	796
11	14469	45.622712420208	799
11	14676	45.92876128281	969
11	14739	46.031998379042	797
11	14902	46.222712413068	799
11	15071	46.428761271144	1001
11	15230	46.631998384145	798
11	15393	46.822712399407	799
11	15427	46.828489258408	1028
11	15725	47.228761244704	1048
11	15749	47.231998387956	797
11	15913	47.422712384424	797
11	16053	47.628489230876	1070
11	16154	47.831998391027	796
11	16259	48.022712370419	797
11	16293	48.028761216881	1096
11	16504	48.428489202755	1118
11	16528	48.431998393373	797
11	16634	48.622712357665	799
11	16774	48.828761188631	1140
11	16875	49.031998395023	798
11	16980	49.222712346638	798
11	17014	49.228489174534	1162
11	17225	49.628761160511	1183
11	17249	49.63199839592	800
11	17355	49.822712337745	799
11	17495	50.028489146641	1197
11	17596	50.231998396089	799
11	17701	50.422712331379	799
11	17735	50.428761133185	1196
11	17946	50.828489120175	1199
11	17970	50.831998396053	799
11	18076	51.02271232761	797
11	18216	51.228761107668	1197
11	18317	51.431998396014	799
11	18422	51.62271232659	798
11	18456	51.628489095715	1199
11	18667	52.028761084374	1196
11	18691	52.031998395976	796
11	18797	52.222712328361	798
11	18937	52.42848907368	1198
11	19038	52.631998395952	799
11	19143	52.822712332817	800
11	19177	52.828761063698	1198
11	19388	53.228489054494	1198
11	19412	53.231998395942	798
11	19518	53.42271233982	796
11	19658	53.628761046131	1196
11	19759	53.831998395942	800
11	19864	54.022712349087	799
11	19898	54.028489038661	1196
11	20109	54.428761032141	1199
11	20133	54.431998395922	796
11	20244	54.622712360353	800
11	20379	54.828489026639	1197
11	20480	55.031998395935	800
11	20590	55.222712373331	799
11	20619	55.228761022197	1200
11	20830	55.628489018834	1198
11	20854	55.631998395931	800
11	20932	55.822712387749	728
11	20992	56.022440392615	638
11	21015	56.028761016697	1199
11	21052	56.222440397267	637
11	21089	56.422712401262	636
11	21112	56.428489015757	1198
11	21172	56.622440404507	638
11	21202	56.722440405512	635
11	21232	56.82244040639	636
11	21255	56.828761015983	1200
11	21285	56.922712407278	636
11	21315	57.022440407882	639
11	21345	57.122440408443	635
11	21398	57.222440409007	637
11	21421	57.228489017408	1196
11	21451	57.322440409566	638
11	21481	57.422712410084	644
11	21511	57.522440410584	649
11	21541	57.622440411056	657
11	21564	57.628761020008	1198
11	21594	57.722440411508	664
11	21647	57.822440411938	671
11	21677	57.922712412342	676
11	21707	58.022440412732	682
11	21730	58.02848902375	1199
11	21805	58.428761028578	1196
11	21841	58.622712414654	715
11	21879	58.828489034472	1200
11	21952	59.222712415834	755
11	21975	59.228761041359	1200
11	22050	59.628489049182	1197
11	22086	59.822712416306	789
11	22117	59.928761055674	1133
11	22154	60.128489060303	1043
11	22214	60.32848906513	954
11	22243	60.422712416311	799
11	22274	60.528761070121	864
11	22311	60.728489075242	774
11	22371	60.928489080374	684
11	22400	61.022712416319	798
11	22431	61.128761085052	681
11	22468	61.32848908931	683
11	22528	61.528489092447	683
11	22557	61.622712416305	798
11	22580	61.628761093466	683
11	22611	61.728489094222	684
11	22641	61.828489094985	684
11	22671	61.928489095431	683
11	22724	62.028489095843	681
11	22754	62.128761096249	682
11	22783	62.222712416278	799
11	22806	62.228489096648	684
11	22837	62.328489097009	691
11	22867	62.428489097351	695
11	22897	62.528489097674	703
11	22950	62.628761097963	711
11	22980	62.728489098222	719
11	23009	62.822712416279	796
11	23032	62.828489098469	725
11	23120	63.42271241625	797
11	23143	63.428761099479	762
11	23231	64.022712416252	800
11	23254	64.028761099822	796
11	23336	64.52876109953	829
11	23365	64.622712416215	798
11	23440	65.028761098694	859
11	23476	65.222712416198	797
11	23521	65.528761097339	891
11	23587	65.822712416184	797
11	23625	66.028761095461	923
11	23698	66.422712416171	800
11	23729	66.528761093038	954
11	23809	67.022712416142	800
11	23832	67.028761090097	987
11	23907	67.428489087361	1011
11	23943	67.622712416125	798
11	23981	67.8287610843	1036
11	24054	68.222712416105	797
11	24077	68.228489080902	1062
11	24152	68.628761077148	1088
11	24188	68.822712416079	798
11	24226	69.028489073111	1108
11	24299	69.422712416068	799
11	24322	69.428761068783	1131
11	24397	69.828489064151	1155
11	24433	70.022712416079	797
11	24471	70.228761059429	1138
10	511	10.371999045639	39356
10	582	10.771727053424	39756
10	626	10.971999056947	39956
10	653	11.171727060511	40156
10	680	11.371727062953	40356
10	702	11.471999063512	40456
10	724	11.571727064094	40556
10	746	11.671727064704	40656
10	768	11.771727065339	40756
10	807	11.871727064854	40856
10	829	11.971999064145	40956
10	851	12.071727063462	41056
10	873	12.171727062805	41156
10	895	12.271727062183	41256
10	917	12.371727061599	41356
10	939	12.47199906105	41456
10	961	12.571727060764	41556
10	983	12.671727060197	41656
10	1022	12.771727059433	41756
10	1059	13.171999056834	42156
10	1096	13.571727055127	42556
10	1150	13.971999054513	42956
10	1187	14.371727055142	43356
10	1246	14.871999057528	43856
10	1288	15.371999062356	44356
10	1347	15.871999069685	44856
10	1406	16.371999079428	45356
10	1443	16.771727088826	45756
10	1480	17.17199909956	46156
10	1534	17.571727111514	46556
10	1571	17.971999124741	46956
10	1625	18.371727139128	47356
10	1662	18.771999154081	47756
10	1716	19.171727170052	48156
10	1753	19.57199918695	48556
10	1807	19.971727204196	48956
10	1842	20.222712243262	49256
10	1878	20.371999221532	49356
10	1925	20.422440247257	49456
10	1962	20.622440251267	49656
10	1998	20.771727239323	49756
10	2022	20.822712255052	49856
10	2118	21.171999253985	50156
10	2215	21.571727266097	50556
10	2292	21.722712266459	50756
10	2381	21.97199927439	50956
10	2524	22.371727280582	51356
10	2601	22.522712262823	51556
10	2685	22.771999291721	51756
10	2782	23.171727297557	52156
10	2841	23.322712257818	52356
10	2879	23.571999303095	52556
10	2953	23.97172730833	52956
10	3012	24.122712255384	53156
10	3050	24.37199931327	53356
10	3124	24.771727317842	53756
10	3160	24.922712257427	53956
10	3221	25.171999322084	54156
10	3295	25.571727326011	54556
10	3331	25.722712265234	54756
10	3369	25.971999329594	54956
10	3443	26.371727332831	55356
10	3502	26.522712279442	55556
10	3540	26.771999335759	55756
10	3614	27.171727338353	56156
10	3650	27.322712299518	56356
10	3711	27.571999340614	56556
10	3785	27.971727342602	56956
10	3851	28.222712328183	57256
10	3882	28.371999344306	57356
10	3956	28.771727345708	57756
10	4022	29.022712358025	58056
10	4053	29.171999346753	58156
10	4127	29.571727347459	58556
10	4193	29.822712390879	58856
10	4217	29.871999347392	58856
10	4254	30.07172734652	59056
10	4328	30.228760954352	59256
10	4353	30.271727344982	59256
10	4403	30.422712416754	59456
10	4432	30.428488961167	59456
10	4458	30.471999342796	59456
10	4538	30.628488968037	59656
10	4563	30.671727340019	59656
10	4613	30.82244043305	59856
10	4642	30.828760974968	59856
10	4668	30.871727336633	59856
10	4747	31.02271244035	60056
10	4773	31.071999333074	60056
10	4823	31.222440447732	60256
10	4849	31.271727329281	60256
10	4890	31.322440450433	60356
10	4957	31.422440452632	60456
10	4983	31.471727325204	60456
10	5024	31.522712454816	60556
10	5050	31.57199932253	60556
10	5091	31.622440456992	60656
10	5117	31.671727319752	60656
10	5158	31.722440459169	60756
10	5187	31.728761006896	60756
10	5213	31.771727316976	60756
10	5283	31.822440460999	60856
10	5309	31.871727313332	60856
10	5350	31.922440462566	60956
10	5417	32.022712463819	61056
10	5442	32.031726369875	60956
10	5544	32.122440464749	61156
10	5570	32.151998366666	61056
10	5671	32.222440465354	61256
10	5698	32.271726363635	61156
10	5768	32.322440465636	61356
10	5895	32.422440465774	61456
10	5921	32.451726358351	61256
10	6022	32.522712468276	61556
10	6049	32.571726355799	61356
10	6119	32.622440470972	61656
10	6148	32.6287610335	61656
10	6275	32.722440471025	61756
10	6301	32.751998350761	61556
10	6371	32.871726348272	61656
10	6478	33.051726343364	61756
10	6550	33.122712471072	62156
10	6719	33.43199833383	62356
10	6791	33.522440470836	62556
10	6820	33.528761056287	62556
10	7030	33.922712470281	62956
10	7094	34.03199832036	62956
10	7242	34.322440469359	63356
10	7310	34.428761079873	63456
10	7440	34.631998308054	63556
10	7550	34.822712467672	63856
10	7757	35.231998297012	64156
10	7829	35.322712465482	64356
10	7858	35.328761104328	64356
10	8106	35.822712462702	64856
10	8131	35.831998287366	64756
10	8319	36.228761129722	65256
10	8414	36.322712459428	65356
10	8478	36.431998279263	65356
10	8626	36.722440456421	220
10	8795	37.031998272835	420
10	8867	37.122712453123	620
10	8896	37.128761156118	620
10	9106	37.522440449527	1020
10	9170	37.631998268216	1020
10	9318	37.922712445652	1420
10	9386	38.028761183557	1520
10	9516	38.231998265538	1620
10	9588	38.322440441462	1820
10	9798	38.722712436851	2220
10	9862	38.831998264843	2220
10	9935	38.928761211997	2420
10	10039	39.122440431907	2620
10	10208	39.431998266116	2820
10	10280	39.522712426658	3020
10	10347	39.62244042562	3120
10	10414	39.722440424885	3220
10	10443	39.728761238337	3220
10	10510	39.82244042445	3320
10	10606	39.92244042431	3420
10	10673	40.022712424299	3520
10	10698	40.031998269377	3420
10	10771	40.122440424297	3620
10	10838	40.222440424293	3720
10	10906	40.328761257466	3820
10	11074	40.631998274476	4020
10	11179	40.822712424306	4320
10	11213	40.828761273093	4320
10	11319	41.028489277942	4520
10	11453	41.228489282815	4720
10	11477	41.231998281347	4620
10	11583	41.422712424316	4920
10	11617	41.428761286683	4920
10	11685	41.528489287595	5020
10	11752	41.628489288489	5120
10	11848	41.728489289378	5220
10	11915	41.828489290254	5320
10	11939	41.831998289882	5220
10	12013	41.92876129079	5420
10	12074	42.022712424298	5520
10	12108	42.028489291052	5520
10	12176	42.128489291305	5620
10	12243	42.228489291535	5720
10	12339	42.328489291755	5820
[...]
20	21227	56.822440307433	636
20	21280	56.922712304654	636
20	21310	57.022440301205	639
20	21340	57.122440297634	635
20	21370	57.179652824333	797
20	21393	57.222440294113	637
20	21446	57.322440290538	638
20	21476	57.42271228678	644
20	21506	57.522440283072	649
20	21536	57.622440279419	657
20	21589	57.722440275825	664
20	21619	57.779652828235	799
20	21642	57.822440272296	671
20	21672	57.922712268851	676
20	21702	58.022440265479	682
20	21776	58.37965283466	797
20	21836	58.622712247446	715
20	21910	58.979652843495	797
20	21947	59.222712234875	755
20	22021	59.57965285454	797
20	22081	59.822712230442	789
20	22178	60.179652867699	797
20	22238	60.422712236274	799
20	22335	60.779652882638	799
20	22395	61.022712248404	798
20	22492	61.379652896706	798
20	22552	61.622712258365	798
20	22695	61.979652902827	797
20	22778	62.222712261527	799
20	22921	62.57965290507	800
20	23004	62.822712263348	796
20	23078	63.179652906455	798
20	23115	63.422712264386	797
20	23189	63.779652907138	800
20	23226	64.022712264727	800
20	23300	64.379652907114	797
20	23360	64.622712264343	798
20	23411	64.979652906297	797
20	23471	65.222712263186	797
20	23545	65.579652904735	797
20	23582	65.822712261258	797
20	23656	66.179652902414	799
20	23693	66.422712258556	800
20	23767	66.779652899318	798
20	23804	67.022712255123	800
20	23878	67.379652895471	797
20	23938	67.622712250922	798
20	24012	67.979652890878	796
20	24049	68.222712245978	797
20	24123	68.579652885511	799
20	24183	68.822712240269	798
20	24257	69.179652879452	797
20	24294	69.422712233911	799
20	24368	69.779652872737	798
20	24428	70.022712226854	797
20	24502	70.379652865727	799
20	24537	70.622712220334	799
20	24618	71.222712214876	800
20	24682	71.822712210339	797
20	24763	72.422712206588	799
20	24827	73.022712203506	797
20	24908	73.622712200988	798
20	24972	74.222712198924	797
20	25036	74.822712197254	798
20	25100	75.422712195896	797
20	25164	76.022712194798	800
20	25245	76.622712193926	799
20	25309	77.222712193232	798
20	25373	77.82271219266	798
20	25437	78.422712192192	799
20	25501	79.022712191837	798
20	25582	79.622712191526	797
20	25646	80.222712191281	797
20	25710	80.822712191088	797
19	4287	30.179652758374	59156
19	4358	30.271727578631	59256
19	4398	30.422712249193	59456
19	4463	30.471999584342	59456
19	4497	30.579380771994	59556
19	4568	30.671727589496	59656
19	4608	30.822440256796	59856
19	4673	30.871727594111	59856
19	4707	30.979652785848	59956
19	4742	31.022712260363	60056
19	4778	31.07199959866	60056
19	4818	31.222440263966	60256
19	4854	31.271727603139	60256
19	4885	31.322440264929	60356
19	4917	31.379380799951	60356
19	4952	31.422440265498	60456
19	4988	31.471727607552	60456
19	5019	31.5227122661	60556
19	5055	31.571999609268	60556
19	5086	31.622440266724	60656
19	5122	31.671727610904	60656
19	5153	31.722440267376	60756
19	5218	31.771727612548	60756
19	5242	31.779652814292	60756
19	5278	31.822440267251	60856
19	5314	31.871727613392	60856
19	5345	31.922440266552	60956
19	5412	32.022712265879	61056
19	5447	32.031726678601	60956
19	5474	32.079380824913	61056
19	5539	32.122440265241	61156
19	5575	32.151998679271	61056
19	5601	32.179380828024	61156
19	5666	32.222440264634	61256
19	5703	32.271726679823	61156
19	5732	32.279652830871	61256
19	5763	32.322440264059	61356
19	5830	32.379380833453	61356
19	5890	32.42244026352	61456
19	5926	32.451726680968	61256
19	5957	32.479380835927	61456
19	6017	32.522712263145	61556
19	6054	32.57172668156	61356
19	6083	32.579380838409	61556
19	6114	32.622440262744	61656
19	6210	32.679380840896	61656
19	6270	32.722440261969	61756
19	6306	32.751998682791	61556
19	6381	32.871726683428	61656
19	6488	33.051726684744	61756
19	6545	33.122712259313	62156
19	6653	33.279652856001	62256
19	6729	33.431998687538	62356
19	6786	33.522440257527	62556
19	6999	33.879652871458	62856
19	7025	33.922712256806	62956
19	7104	34.031998692124	62956
19	7237	34.322440257317	63356
19	7374	34.479652887269	63456
19	7450	34.631998697148	63556
19	7545	34.822712259527	63856
19	7691	35.079652903475	64056
19	7767	35.231998702454	64156
19	7824	35.32271226416	64356
19	8037	35.679652920084	64656
19	8101	35.822712271359	64856
19	8141	35.831998708005	64756
19	8383	36.279652937118	65256
19	8409	36.322712281044	65356
19	8488	36.431998713769	65356
19	8621	36.722440290489	220
19	8729	36.879652954597	320
19	8805	37.031998719716	420
19	8862	37.122712301289	620
19	9075	37.479652972541	920
19	9101	37.522440313348	1020
19	9180	37.631998725824	1020
19	9313	37.922712326674	1420
19	9450	38.079652990953	1520
19	9526	38.231998732027	1620
19	9583	38.322440341215	1820
19	9767	38.67965300975	2120
19	9793	38.722712356361	2220
19	9872	38.831998738403	2220
19	10034	39.122440372525	2620
19	10142	39.279653029174	2720
19	10218	39.431998744882	2820
19	10275	39.52271238957	3020
19	10342	39.622440393651	3120
19	10409	39.722440397469	3220
19	10505	39.822440400819	3320
19	10575	39.879653048894	3320
19	10601	39.922440403893	3420
19	10668	40.022712406865	3520
19	10708	40.031998750817	3420
19	10766	40.122440409862	3620
19	10833	40.222440412882	3720
19	11008	40.479653068108	3920
19	11084	40.631998756074	4020
19	11184	40.822712430799	4320
19	11383	41.079653085338	4520
19	11487	41.231998756994	4620
19	11588	41.422712443806	4920
19	11816	41.679653095885	5120
19	11949	41.831998751004	5220
19	12079	42.02271244801	5520
19	12307	42.279653098931	5720
19	12440	42.431998742625	5820
19	12570	42.622712451047	6120
19	12798	42.879653104906	6320
19	12874	43.031998738927	6420
19	12974	43.222712454501	6720
19	13144	43.47965310496	6920
19	13248	43.631998730471	7020
19	13349	43.82271245405	7320
19	13519	44.079653104304	7520
19	13595	44.23199872195	7620
19	13695	44.42271245288	7920
19	13865	44.679653102856	8120
19	13941	44.831998713514	8220
19	14070	45.022712450878	8520
19	14135	45.079381101073	8520
19	14240	45.279653099299	8720
19	14344	45.431998705196	8820
19	14376	45.479381096985	8920
19	14474	45.622712448165	9120
19	14539	45.679381094595	9120
19	14644	45.879653091704	9320
19	14749	46.031998696978	9420
19	14780	46.079381088401	9520
19	14876	46.179381086201	9620
19	14907	46.222712444692	9720
19	14972	46.279381083987	9720
19	15039	46.379653081583	9820
19	15135	46.47938107854	9920
19	15202	46.579381075478	10020
19	15240	46.631998688904	10020
19	15271	46.679381072405	10120
19	15367	46.779381069207	10220
19	15398	46.822712440414	10320
19	15492	46.879653065804	10320
19	15559	46.979381062389	10420
19	15626	47.079381058966	10520
19	15693	47.179381055537	10620
19	15759	47.231998681108	10620
19	15791	47.2793810521	10720
19	15887	47.379653048656	10820
19	15918	47.422712435469	10920
19	15983	47.479381045203	10920
19	16164	47.831998673726	11220
19	16264	48.022712429837	11520
19	16396	48.179653020755	11620
19	16538	48.431998666369	11820
19	16639	48.622712423598	12120
19	16742	48.77965299956	12220
19	16885	49.031998660723	12420
19	16985	49.222712416573	12720
19	17117	49.379652978415	12820
19	17259	49.631998655824	13020
19	17360	49.822712408913	13320
19	17463	49.979652957473	13420
19	17606	50.231998652008	13620
19	17706	50.422712400917	13920
19	17838	50.579652937285	14020
19	17980	50.831998649452	14220
19	18081	51.022712392914	14520
19	18184	51.179652918136	14620
19	18327	51.431998648125	14820
19	18427	51.622712384908	15120
19	18559	51.779652900219	15220
19	18701	52.031998648029	15420
19	18802	52.222712376907	15720
19	18900	52.379652883685	15820
19	19048	52.631998649178	16020
19	19148	52.822712368914	16320
19	19275	52.979652868718	16420
19	19422	53.231998651555	16620
19	19523	53.422712360904	16920
19	19621	53.579652855534	17020
19	19769	53.831998655164	17220
19	19869	54.022712352932	17520
19	19996	54.179652844335	17620
19	20143	54.431998659951	17820
19	20239	54.62271234494	18120
19	20342	54.779652835309	18220
19	20490	55.031998665925	18420
19	20585	55.22271233693	18720
19	20717	55.379652828638	18820
19	20864	55.631998673026	19020
19	20927	55.82271232859	19320
19	20964	55.979652824517	19420
19	20987	56.02244032498	19520
19	21047	56.222440321196	19720
19	21084	56.422712317196	19920
19	21144	56.579652823093	20020
19	21167	56.622440312949	20120
19	21197	56.722440310242	20220
19	21227	56.822440307433	20320
19	21280	56.922712304654	20420
19	21310	57.022440301205	20520
19	21340	57.122440297634	20620
19	21370	57.179652824333	20620
19	21393	57.222440294113	20720
19	21446	57.322440290538	20820
19	21476	57.42271228678	20920
19	21506	57.522440283072	21020
19	21536	57.622440279419	21120
19	21589	57.722440275825	21220
19	21619	57.779652828235	21220
19	21642	57.822440272296	21320
19	21672	57.922712268851	21420
19	21702	58.022440265479	21520
19	21776	58.37965283466	21820
19	21836	58.622712247446	22120
19	21910	58.979652843495	22420
19	21947	59.222712234875	22720
19	22021	59.57965285454	23020
19	22081	59.822712230442	23320
19	22178	60.179652867699	23620
19	22238	60.422712236274	23920
19	22335	60.779652882638	24220
19	22395	61.022712248404	24520
19	22492	61.379652896706	24820
19	22552	61.622712258365	25120
19	22695	61.979652902827	25420
19	22778	62.222712261527	25720
19	22921	62.57965290507	26020
19	23004	62.822712263348	26320
19	23078	63.179652906455	26620
19	23115	63.422712264386	26920
19	23189	63.779652907138	27220
19	23226	64.022712264727	27520
19	23300	64.379652907114	27820
19	23360	64.622712264343	28120
19	23411	64.979652906297	28420
19	23471	65.222712263186	28720
19	23545	65.579652904735	29020
19	23582	65.822712261258	29320
19	23656	66.179652902414	29620
19	23693	66.422712258556	29920
19	23767	66.779652899318	30220
19	23804	67.022712255123	30520
19	23878	67.379652895471	30820
19	23938	67.622712250922	31120
19	24012	67.979652890878	31420
19	24049	68.222712245978	31720
19	24123	68.579652885511	32020
19	24183	68.822712240269	32320
19	24257	69.179652879452	32620
19	24294	69.422712233911	32920
19	24368	69.779652872737	33220
19	24428	70.022712226854	33520
19	24502	70.379652865727	33820
19	24537	70.622712220334	34120
19	24618	71.222712214876	34720
19	24682	71.822712210339	35320
19	24763	72.422712206588	35920
19	24827	73.022712203506	36520
19	24908	73.622712200988	37120
19	24972	74.222712198924	37720
19	25036	74.822712197254	38320
19	25100	75.422712195896	38920
19	25164	76.022712194798	39520
19	25245	76.622712193926	40120
19	25309	77.222712193232	40720
19	25373	77.82271219266	41320
19	25437	78.422712192192	41920
19	25501	79.022712191837	42520
19	25582	79.622712191526	43120
19	25646	80.222712191281	43720
19	25710	80.822712191088	44320
25	5381	31.971727614242	1.1371475675743
25	5509	32.091726678601	1.2000222031254
25	5641	32.211726679823	1.3012190555077
25	5798	32.331726680388	1.3662942114979
25	5860	32.391726680388	1.3662942114979
25	5992	32.51172668156	1.4844800659217
25	6177	32.631726682168	1.5626900654141
25	6240	32.691726682168	1.5626900654141
25	6348	32.811726683428	1.6982553646289
25	6419	32.931726684078	1.7673839121353
25	6451	32.991726684078	1.7673839121353
25	6525	33.111726685423	1.8824949828297
25	6586	33.17172762192	1.8824949828297
25	6624	33.271727622612	1.9283165180258
25	6691	33.371727623317	2.0032954842172
25	6761	33.491726687538	2.0517784238089
25	6856	33.571727624766	2.1130490073137
25	6894	33.671727625509	2.154860663446
25	6932	33.771727626267	2.2332588959805
25	6970	33.871727627038	2.2733505827509
25	7066	33.971727627822	2.3305948467593
25	7136	34.091726692124	2.4016233954992
25	7173	34.171727629433	2.4728771212179
25	7211	34.271727630259	2.5243853702437
25	7278	34.371727631094	2.59131271508
25	7345	34.471727631937	2.6476682868454
25	7412	34.571727632788	2.695081461402
25	7482	34.691726697148	2.7685496646486
25	7519	34.771727634513	2.8447328335181
25	7586	34.871727635386	2.9113705531735
25	7624	34.971727636267	2.9739053371776
25	7662	35.071727637156	3.0222240547318
25	7729	35.171727638049	3.0797248337086
25	7799	35.291726702454	3.1443777107954
25	7894	35.371727639861	3.2005679420236
25	7932	35.471727640776	3.2795544660691
25	7970	35.571727641699	3.3460247183911
25	8008	35.671727642628	3.39320203938
25	8075	35.771727643563	3.4380147184659
25	8174	35.891726708005	3.486532254903
25	8211	35.971727645448	3.5421520245395
25	8249	36.071727646401	3.6152222596988
25	8287	36.171727647359	3.6612472095102
25	8354	36.271727648322	3.7364455257676
25	8450	36.371727649292	3.7848304710857
25	8520	36.491726713769	3.8455575682822
25	8557	36.571727651244	3.9195967782888
25	8595	36.671727652227	3.9670008826297
25	8662	36.771727653216	4.0138811129465
25	8700	36.871727654211	4.0668306524534
25	8767	36.971727655209	4.1309319947328
25	8837	37.091726719716	4.2104989806603
25	8932	37.171727657222	4.2903795041278
25	8970	37.271727658234	4.3408848739363
25	9008	37.371727659248	4.3856801444612
25	9046	37.471727660269	4.4278177481558
25	9142	37.571727661294	4.4836458697304
25	9212	37.691726725824	4.5315898980893
25	9249	37.771727663352	4.6010918658919
25	9287	37.871727664386	4.6529729419615
25	9354	37.971727665425	4.7011845373589
25	9421	38.071727666466	4.7665734124411
25	9488	38.171727667473	4.8291781939886
25	9558	38.291726732027	4.9089094809949
25	9624	38.371727669579	4.9655778746534
25	9662	38.471727670639	5.0089316254895
25	9700	38.5717276717	5.0703976316232
25	9738	38.671727672762	5.1206666477065
25	9834	38.771727673828	5.1797966531053
25	9904	38.891726738403	5.2248758164555
25	9970	38.971727675972	5.2945693529531
25	10008	39.071727677051	5.3638175059523
25	10075	39.171727678129	5.4230212459288
25	10113	39.27172767921	5.4837032971851
25	10180	39.371727680295	5.5297453509498
25	10250	39.491726744882	5.5707688611693
25	10316	39.57172768247	5.6205603329692
25	10383	39.671727683563	5.6887511939037
25	10479	39.771727684661	5.7451689537097
25	10546	39.871727685552	5.817158356462
25	10642	39.971727686434	5.8782811741013
25	10741	40.091726750817	5.9338740200497
25	10807	40.171727688194	6.0121866458043
25	10874	40.271727689074	6.0738173396088
25	10941	40.371727689955	6.1538173396088
25	10979	40.471727690823	6.2338173396088
25	11046	40.571727691697	6.3138173396088
25	11116	40.691726756074	6.3938173396088
25	11153	40.771727693442	6.4738173396088
25	11249	40.87172769359	6.5538173396088
25	11287	40.97172769358	6.6205933776632
25	11354	41.071727693561	6.6758975359652
25	11421	41.171727693531	6.7468651330232
25	11520	41.291726756994	6.8196465013031
25	11557	41.371727693445	6.8793602181081
25	11653	41.471727692585	6.9232105677895
25	11720	41.571727691339	6.9768098352425
25	11787	41.671727690075	7.0375556462765
25	11883	41.771727688794	7.1030927930999
25	11982	41.891726751004	7.1479798698
25	12048	41.97172768615	7.1989065079711
25	12144	42.071727684751	7.2620874829538
25	12211	42.171727683351	7.3030408312328
25	12278	42.271727681946	7.3435419780802
25	12374	42.371727680535	7.3946088273305
25	12473	42.491726742625	7.4531969607197
25	12539	42.5717276777	7.5213462503016
25	12635	42.671727678044	7.5808742579952
25	12702	42.771727679596	7.6578837631684
25	12769	42.871727678211	7.7165256988298
25	12836	42.971727676821	7.7961725535564
25	12906	43.091726738927	7.870446356418
25	12943	43.171727674023	7.9278277433984
25	13039	43.271727672618	7.9965154414944
25	13077	43.371727671211	8.0571399584733
25	13115	43.471727669796	8.1303353256028
25	13182	43.57172766838	8.1788352000195
25	13281	43.691726730471	8.2317644179653
25	13318	43.771727665547	8.3113641507406
25	13385	43.871727664128	8.3582453166455
25	13423	43.97172766271	8.4069149200473
25	13490	44.071727661291	8.4624929402251
25	13557	44.171727659869	8.5401072180591
25	13627	44.29172672195	8.5923728821002
25	13664	44.37172765702	8.6709782389592
25	13760	44.471727655587	8.7478751415428
25	13798	44.571727654177	8.818220957084
25	13836	44.671727652786	8.8720486956876
25	13903	44.771727651401	8.9174887655716
25	13973	44.891726713514	8.9961651738308
25	14039	44.971727648623	9.0596413614176
25	14106	45.071727647234	9.1248240464408
25	14173	45.17172764585	9.1770602872263
25	14211	45.271727644465	9.2473780319694
25	14278	45.371727643075	9.320679220524
25	14406	45.491726705196	9.3678270868439
25	14443	45.571727640314	9.429605776979
25	14510	45.671727638942	9.4915334176965
25	14577	45.771727637572	9.5601012156572
25	14615	45.871727636203	9.6200280604645
25	14711	45.971727634837	9.6924262934591
25	14810	46.091726696978	9.765451961527
25	14847	46.171727632115	9.8251603443589
25	14943	46.27172763076	9.8919968370762
25	15010	46.371727629405	9.9700219780061
25	15106	46.471727628064	10.012915961299
25	15173	46.571727626726	10.09113102741
25	15301	46.691726688904	10.143002146664
25	15338	46.771727624077	10.208914155024
25	15463	46.871727622762	10.276723415343
25	15530	46.971727621453	10.335892684166
25	15597	47.071727620158	10.383270563282
25	15664	47.171727618873	10.427931075259
25	15821	47.291726681108	10.477758048777
25	15858	47.371727616347	10.52410891252
25	15954	47.471727615101	10.581063639665
25	16021	47.571727613869	10.636171215237
25	16088	47.671727612644	10.697062862305
25	16126	47.771727611425	10.776072888658
25	16196	47.891726673726	10.822506640595
25	16233	47.971727609035	10.891606515594
25	16329	48.071727607738	10.96125073763
25	16367	48.171727606504	11.007650209539
25	16434	48.271727605285	11.052268795934
25	16472	48.371727604069	11.113940217806
25	16571	48.491726666369	11.176519054132
25	16608	48.571727601842	11.217141662188
25	16675	48.67172760088	11.285288204313
25	16713	48.771727599934	11.36059595101
25	16809	48.871727599007	11.404785611522
25	16847	48.9717275981	11.453437221744
25	16917	49.091726660723	11.494166409396
25	16954	49.171727596357	11.54251989556
25	17050	49.271727595505	11.618030477226
25	17088	49.371727594679	11.662320541241
25	17155	49.471727593871	11.721230739117
25	17193	49.57172759309	11.762714621066
25	17292	49.691726655824	11.829261476038
25	17329	49.771727591578	11.884971585213
25	17396	49.871727590866	11.933493283647
25	17434	49.971727590225	11.974857085086
25	17530	50.071727589615	11.970820121216
25	17568	50.171727589044	11.966892992752
25	17638	50.291726652008	11.969708292754
25	17675	50.371727587994	11.981580420546
25	17771	50.471727587519	11.964708535885
25	17809	50.571727587072	11.977309323372
25	17876	50.67172758666	11.991504529854
25	17914	50.771727586293	11.961480509276
25	18013	50.891726649452	11.992360930098
25	18050	50.97172758564	11.986404176839
25	18117	51.07172758537	11.981973887756
25	18155	51.17172758513	11.996218672628
25	18251	51.271727584925	11.973696648823
25	18289	51.371727584756	11.991429705573
25	18359	51.491726648125	11.966444120146
25	18396	51.571727584522	11.98129161342
25	18492	51.671727584456	11.98959279893
25	18530	51.771727584422	11.970227642441
25	18597	51.87172758442	11.986251984686
25	18635	51.971727584452	11.972886747112
25	18734	52.091726648029	11.964229656253
25	18771	52.171727584634	11.991151748691
25	18838	52.271727584779	11.976086906847
25	18876	52.371727584955	11.988384977132
25	18972	52.471727585158	11.981365284007
25	19010	52.571727585405	11.971761570768
25	19080	52.691726649178	11.98602486508
25	19117	52.771727585987	11.982576642325
25	19213	52.871727586334	11.978387445472
25	19251	52.971727586712	11.982764420435
25	19318	53.071727587127	11.979601495117
25	19356	53.171727587576	11.97158650809
25	19455	53.291726651555	11.982900455575
25	19492	53.371727588568	11.997489708448
25	19559	53.47172758912	11.960393418055
25	19597	53.571727589706	11.961653663572
25	19693	53.671727590323	11.963229092835
25	19731	53.771727590975	11.997781284489
25	19801	53.891726655164	11.96274090928
25	19838	53.971727592378	11.973920289902
25	19934	54.071727593132	11.962852583043
25	19972	54.17172759392	11.97612567612
25	20039	54.271727594733	11.963484727209
25	20077	54.371727595573	11.988874404188
25	20176	54.491726659951	11.991413282249
25	20213	54.571727597362	11.972069284292
25	20280	54.671727598314	11.973036843557
25	20318	54.77172759929	11.985154148117
25	20414	54.871727600302	11.973784224791
25	20452	54.971727601349	11.979507913189
25	20522	55.091726665925	11.98538777343
25	20559	55.17172760352	11.991245324556
25	20655	55.271727604654	11.995431303764
25	20693	55.371727605823	11.987053801119
25	20760	55.471727607027	11.974589736247
25	20798	55.57172760826	11.996764856027
25	20897	55.691726673026	11.979631687338

